                                                                
version 3
run MultiMec-0-20241026-17:08:10-39024
attr configname MultiMec
attr datetime 20241026-17:08:10
attr datetimef 20241026-170810
attr experiment MultiMec
attr inifile omnetpp.ini
attr iterationvars ""
attr iterationvarsd ""
attr iterationvarsf ""
attr measurement ""
attr network simu5g.simulations.NR.mec.requestResponseApp.MultiMecHost_delay
attr processid 39024
attr repetition 0
attr replication #0
attr resultdir results
attr runnumber 0
attr seedset 0
config image-path ../../../../images;../../../../../inet4.5/images
config sim-time-limit 40s
config network simu5g.simulations.NR.mec.requestResponseApp.MultiMecHost_delay
config **.mobility.constraintAreaMaxX 1000m
config **.mobility.constraintAreaMaxY 750m
config **.mobility.constraintAreaMinX 0m
config **.mobility.constraintAreaMinY 250m
config **.mobility.constraintAreaMinZ 0m
config **.mobility.constraintAreaMaxZ 0m
config **.mobility.initFromDisplayString false
config *.carrierAggregation.numComponentCarriers 1
config *.carrierAggregation.componentCarrier[0].numerologyIndex 0
config *.carrierAggregation.componentCarrier[0].carrierFrequency 4GHz
config *.carrierAggregation.componentCarrier[0].numBands 50
config *.gnb*.cellularNic.numCarriers 1
config *.gnb*.cellularNic.channelModel[0].componentCarrierIndex 0
config *.ue[*].cellularNic.numCarriers 1
config *.ue[*].cellularNic.nrChannelModel[0].componentCarrierIndex 0
config *.gnb1.mobility.initialX 250m
config *.gnb1.mobility.initialY 500m
config *.gnb2.mobility.initialX 750m
config *.gnb2.mobility.initialY 500m
config *.numUe 2
config *.ue[*].macCellId 0
config *.ue[*].masterId 0
config *.ue[*].nrMacCellId 1
config *.ue[*].nrMasterId 1
config *.ue[*].mobility.typename LinearMobility
config *.ue[*].mobility.updateInterval 0.05s
config **.dynamicCellAssociation true
config **.enableHandover true
config *.ue[0].mobility.initialX 280m
config *.ue[0].mobility.initialY 500m
config *.ue[0].mobility.initialMovementHeading 0deg
config *.ue[0].mobility.speed 3mps
config *.ue[1].mobility.initialX 880m
config *.ue[1].mobility.initialY 500m
config *.ue[1].mobility.initialMovementHeading 180deg
config *.ue[1].mobility.speed 3mps
config **.hasRNISupport true
config **.tcp.typename Tcp
config **.tcp.advertisedWindow 65535
config **.tcp.tcpAlgorithmClass "\"TcpReno\""
config **.tcp.sackSupport true
config **.tcp.nagleEnabled false
config **.tcp.mss 1452
config **.mecHost*.virtualisationInfrastructure.ipv4.forwarding true
config **.mecHost*.vim.scheduling "\"fair\""
config *.mecHost*.maxMECApps 1000
config *.mecHost*.maxRam 32GB
config *.mecHost*.maxDisk 100TB
config *.mecHost1.maxCpuSpeed 330000
config *.mecHost2.maxCpuSpeed 990000
config *.mecHost*.eNBList "\"gnb1, gnb2\""
config *.mecHost1.mecPlatform.numMecServices 1
config *.mecHost1.mecPlatform.mecService[0].typename RNIService
config *.mecHost1.mecPlatform.mecService[0].localAddress "\"mecHost1.virtualisationInfrastructure\""
config *.mecHost1.mecPlatform.mecService[0].localPort 10020
config *.mecHost1.mecPlatform.serviceRegistry.localAddress "\"mecHost1.virtualisationInfrastructure\""
config *.mecHost1.mecPlatform.serviceRegistry.localPort 10021
config *.mecHost2.mecPlatform.numMecServices 1
config *.mecHost2.mecPlatform.mecService[0].typename RNIService
config *.mecHost2.mecPlatform.mecService[0].localAddress "\"mecHost2.virtualisationInfrastructure\""
config *.mecHost2.mecPlatform.mecService[0].localPort 10020
config *.mecHost2.mecPlatform.serviceRegistry.localAddress "\"mecHost2.virtualisationInfrastructure\""
config *.mecHost2.mecPlatform.serviceRegistry.localPort 10021
config *.mecHost*.mecPlatform.serviceRegistry.rng-0 0
config *.mecHost*.mecPlatform.serviceRegistry.rng-1 1
config *.mecHost*.mecPlatform.mecService[0].rng-0 1
config *.mecHost*.mecPlatform.mecService[0].rng-1 2
config *.mecHost*.mecPlatform.mecService[0].requestServiceTime 4ms
config *.mecHost*.mecPlatform.mecService[0].subscriptionServiceTime 11us
config *.mecOrchestrator.mecHostList "\"mecHost1, mecHost2\""
config *.mecOrchestrator.mecApplicationPackageList "\"ResponseApp\""
config *.mecHost*.mecPlatformManager.mecOrchestrator "\"mecOrchestrator\""
config *.ue[*].numApps 2
config *.ue[*].app[0].typename DeviceApp
config *.ue[*].app[0].localPort 4500
config *.ue[*].app[0].UALCMPAddress "\"ualcmp\""
config *.ue[*].app[0].UALCMPPort 1000
config *.ue[*].app[0].appPackageSource "\"ApplicationDescriptors/ResponseApp.json\""
config *.ue[*].app[1].typename UERequestApp
config *.ue[*].app[1].deviceAppAddress "\"ue[\"+string(ancestorIndex(1))+\"]\""
config *.ue[*].app[1].deviceAppPort 4500
config *.ue[*].app[1].startTime 1s
config *.ue[*].app[1].requestPacketSize 50000B
config *.ue[*].app[1].stopTime 190s
config *.ue[*].app[1].positionX 600m
config *.ue[*].app[1].positionY 600m
config *.routersDelay 2m
config image-path ../../../images
config output-scalar-file-append false
config **.routingRecorder.enabled false
config output-scalar-file results/MultiMec/MultiMec--0.sca
config output-vector-file results/MultiMec/MultiMec--0.vec
config seed-set 0
config num-rngs 3
config repeat 31
config **.sctp.**.scalar-recording false
config **.sctp.**.vector-recording false
config **.mecHost*.**.vector-recording true
config **.ue[*].app[1].**.vector-recording true
config **.vector-recording false
config warmup-period 10s
config **.sctp.nagleEnabled false
config **.sctp.enableHeartbeats false
config **.downlink_interference true
config **.uplink_interference true
config **.ueTxPower 26dBm
config **.eNodeBTxPower 46dBm
config **.targetBler 0.01
config **.blerShift 5
config **.fbPeriod 40tti
config *.configurator.config "xmldoc(\"./demo.xml\")"

vector 0 MultiMecHost_delay.upf.lo[0].lo rcvdPkFromHl:vector(packetBytes) ETV
attr interpolationmode none
attr recordingmode vector(packetBytes)
attr source packetReceivedFromUpper
attr title "packets received from higher layer, packetBytes"
vector 1 MultiMecHost_delay.upf.lo[0].lo passedUpPk:vector(packetBytes) ETV
attr interpolationmode none
attr recordingmode vector(packetBytes)
attr source packetSentToUpper
attr title "packets passed to higher layer, packetBytes"
vector 2 MultiMecHost_delay.upf.lo[0] packetDropInterfaceDown:vector(packetBytes) ETV
attr interpolationmode none
attr recordingmode vector(packetBytes)
attr source packetDropReasonIsInterfaceDown(packetDropped)
attr title "packet drops: interface down, packetBytes"
vector 3 MultiMecHost_delay.upf.lo[0] packetDropNoCarrier:vector(packetBytes) ETV
attr interpolationmode none
attr recordingmode vector(packetBytes)
attr source packetDropReasonIsNoCarrier(packetDropped)
attr title "packet drops: no carrier, packetBytes"
vector 4 MultiMecHost_delay.upf.ppp[0].queue queueLength:vector ETV
attr autoWarmupFilter false
attr interpolationmode sample-hold
attr recordingmode vector
attr source "warmup(atomic(constant0(packetPushEnded) + count(packetPushStarted) - count(packetPulled) - count(packetRemoved) - count(packetDropped)))"
attr title "queue length"
attr unit pk
vector 5 MultiMecHost_delay.upf.ppp[0].queue queueBitLength:vector ETV
attr autoWarmupFilter false
attr interpolationmode sample-hold
attr recordingmode vector
attr source "warmup(atomic(constant0(packetPushEnded) + sum(packetLength(packetPushStarted)) - sum(packetLength(packetPulled)) - sum(packetLength(packetRemoved)) - sum(packetLength(packetDropped))))"
attr title "queue bit length"
attr unit b
vector 6 MultiMecHost_delay.upf.ppp[0].queue queueingTime:vector ETV
attr interpolationmode none
attr recordingmode vector
attr source queueingTime(packetPulled)
attr title "queueing times"
attr unit s
vector 7 MultiMecHost_delay.upf.ppp[0].queue incomingPacketLengths:vector ETV
attr interpolationmode none
attr recordingmode vector
attr source packetLength(packetPushStarted)
attr title "incoming packet lengths"
attr unit b
vector 8 MultiMecHost_delay.upf.ppp[0].queue incomingDataRate:vector ETV
attr interpolationmode linear
attr recordingmode vector
attr source throughput(packetPushStarted)
attr title "incoming datarate"
attr unit bps
vector 9 MultiMecHost_delay.upf.ppp[0].queue outgoingPacketLengths:vector ETV
attr interpolationmode none
attr recordingmode vector
attr source packetLength(packetPulled)
attr title "outgoing packet lengths"
attr unit b
vector 10 MultiMecHost_delay.upf.ppp[0].queue outgoingDataRate:vector ETV
attr interpolationmode linear
attr recordingmode vector
attr source throughput(packetPulled)
attr title "outgoing datarate"
attr unit bps
vector 11 MultiMecHost_delay.upf.ppp[0].queue droppedPacketLengthsQueueOverflow:vector ETV
attr interpolationmode none
attr recordingmode vector
attr source packetLength(packetDropReasonIsQueueOverflow(packetDropped))
attr title "dropped packet lengths: queue overflow"
attr unit b
vector 12 MultiMecHost_delay.upf.ppp[0].queue flowQueueingTime:vector ETV
attr interpolationmode none
attr recordingmode vector
attr source queueingTime(demuxFlow(packetPulled))
attr title "flow queueing times"
attr unit s
vector 13 MultiMecHost_delay.upf.ppp[0].queue flowIncomingDataRate:vector ETV
attr interpolationmode linear
attr recordingmode vector
attr source throughput(flowPacketLength(demuxFlow(packetPushStarted)))
attr title "flow specific incoming data rate"
attr unit bps
vector 14 MultiMecHost_delay.upf.ppp[0].queue flowOutgoingDataRate:vector ETV
attr interpolationmode linear
attr recordingmode vector
attr source throughput(flowPacketLength(demuxFlow(packetPulled)))
attr title "flow specific outgoing data rate"
attr unit bps
vector 15 MultiMecHost_delay.upf.ppp[0].ppp transmissionState:vector ETV
attr interpolationmode sample-hold
attr recordingmode vector
attr source transmissionStateChanged
attr title "tx state"
vector 16 MultiMecHost_delay.upf.ppp[0].ppp txPk:vector(packetBytes) ETV
attr interpolationmode none
attr recordingmode vector(packetBytes)
attr source packetSentToLower
attr title "packets transmitted, packetBytes"
vector 17 MultiMecHost_delay.upf.ppp[0].ppp rxPkOk:vector(packetBytes) ETV
attr interpolationmode none
attr recordingmode vector(packetBytes)
attr source rxPkOk
attr title "packets received OK, packetBytes"
vector 18 MultiMecHost_delay.upf.ppp[0].ppp packetDropIncorrectlyReceived:vector(packetBytes) ETV
attr interpolationmode none
attr recordingmode vector(packetBytes)
attr source packetDropReasonIsIncorrectlyReceived(packetDropped)
attr title "packet drop: incorrectly received, packetBytes"
vector 19 MultiMecHost_delay.upf.ppp[0].ppp packetDropInterfaceDown:vector(packetBytes) ETV
attr interpolationmode none
attr recordingmode vector(packetBytes)
attr source packetDropReasonIsInterfaceDown(packetDropped)
attr title "packet drop: interface down, packetBytes"
vector 20 MultiMecHost_delay.upf.ppp[0].ppp rcvdPkFromHl:vector(packetBytes) ETV
attr interpolationmode none
attr recordingmode vector(packetBytes)
attr source packetReceivedFromUpper
attr title "packets received from higher layer, packetBytes"
vector 21 MultiMecHost_delay.upf.ppp[0].ppp passedUpPk:vector(packetBytes) ETV
attr interpolationmode none
attr recordingmode vector(packetBytes)
attr source packetSentToUpper
attr title "packets passed to higher layer, packetBytes"
vector 22 MultiMecHost_delay.upf.ppp[0] packetDropInterfaceDown:vector(packetBytes) ETV
attr interpolationmode none
attr recordingmode vector(packetBytes)
attr source packetDropReasonIsInterfaceDown(packetDropped)
attr title "packet drops: interface down, packetBytes"
vector 23 MultiMecHost_delay.upf.ppp[0] packetDropNoCarrier:vector(packetBytes) ETV
attr interpolationmode none
attr recordingmode vector(packetBytes)
attr source packetDropReasonIsNoCarrier(packetDropped)
attr title "packet drops: no carrier, packetBytes"
vector 24 MultiMecHost_delay.upf.ppp[1].queue queueLength:vector ETV
attr autoWarmupFilter false
attr interpolationmode sample-hold
attr recordingmode vector
attr source "warmup(atomic(constant0(packetPushEnded) + count(packetPushStarted) - count(packetPulled) - count(packetRemoved) - count(packetDropped)))"
attr title "queue length"
attr unit pk
vector 25 MultiMecHost_delay.upf.ppp[1].queue queueBitLength:vector ETV
attr autoWarmupFilter false
attr interpolationmode sample-hold
attr recordingmode vector
attr source "warmup(atomic(constant0(packetPushEnded) + sum(packetLength(packetPushStarted)) - sum(packetLength(packetPulled)) - sum(packetLength(packetRemoved)) - sum(packetLength(packetDropped))))"
attr title "queue bit length"
attr unit b
vector 26 MultiMecHost_delay.upf.ppp[1].queue queueingTime:vector ETV
attr interpolationmode none
attr recordingmode vector
attr source queueingTime(packetPulled)
attr title "queueing times"
attr unit s
vector 27 MultiMecHost_delay.upf.ppp[1].queue incomingPacketLengths:vector ETV
attr interpolationmode none
attr recordingmode vector
attr source packetLength(packetPushStarted)
attr title "incoming packet lengths"
attr unit b
vector 28 MultiMecHost_delay.upf.ppp[1].queue incomingDataRate:vector ETV
attr interpolationmode linear
attr recordingmode vector
attr source throughput(packetPushStarted)
attr title "incoming datarate"
attr unit bps
vector 29 MultiMecHost_delay.upf.ppp[1].queue outgoingPacketLengths:vector ETV
attr interpolationmode none
attr recordingmode vector
attr source packetLength(packetPulled)
attr title "outgoing packet lengths"
attr unit b
vector 30 MultiMecHost_delay.upf.ppp[1].queue outgoingDataRate:vector ETV
attr interpolationmode linear
attr recordingmode vector
attr source throughput(packetPulled)
attr title "outgoing datarate"
attr unit bps
vector 31 MultiMecHost_delay.upf.ppp[1].queue droppedPacketLengthsQueueOverflow:vector ETV
attr interpolationmode none
attr recordingmode vector
attr source packetLength(packetDropReasonIsQueueOverflow(packetDropped))
attr title "dropped packet lengths: queue overflow"
attr unit b
vector 32 MultiMecHost_delay.upf.ppp[1].queue flowQueueingTime:vector ETV
attr interpolationmode none
attr recordingmode vector
attr source queueingTime(demuxFlow(packetPulled))
attr title "flow queueing times"
attr unit s
vector 33 MultiMecHost_delay.upf.ppp[1].queue flowIncomingDataRate:vector ETV
attr interpolationmode linear
attr recordingmode vector
attr source throughput(flowPacketLength(demuxFlow(packetPushStarted)))
attr title "flow specific incoming data rate"
attr unit bps
vector 34 MultiMecHost_delay.upf.ppp[1].queue flowOutgoingDataRate:vector ETV
attr interpolationmode linear
attr recordingmode vector
attr source throughput(flowPacketLength(demuxFlow(packetPulled)))
attr title "flow specific outgoing data rate"
attr unit bps
vector 35 MultiMecHost_delay.upf.ppp[1].ppp transmissionState:vector ETV
attr interpolationmode sample-hold
attr recordingmode vector
attr source transmissionStateChanged
attr title "tx state"
vector 36 MultiMecHost_delay.upf.ppp[1].ppp txPk:vector(packetBytes) ETV
attr interpolationmode none
attr recordingmode vector(packetBytes)
attr source packetSentToLower
attr title "packets transmitted, packetBytes"
vector 37 MultiMecHost_delay.upf.ppp[1].ppp rxPkOk:vector(packetBytes) ETV
attr interpolationmode none
attr recordingmode vector(packetBytes)
attr source rxPkOk
attr title "packets received OK, packetBytes"
vector 38 MultiMecHost_delay.upf.ppp[1].ppp packetDropIncorrectlyReceived:vector(packetBytes) ETV
attr interpolationmode none
attr recordingmode vector(packetBytes)
attr source packetDropReasonIsIncorrectlyReceived(packetDropped)
attr title "packet drop: incorrectly received, packetBytes"
vector 39 MultiMecHost_delay.upf.ppp[1].ppp packetDropInterfaceDown:vector(packetBytes) ETV
attr interpolationmode none
attr recordingmode vector(packetBytes)
attr source packetDropReasonIsInterfaceDown(packetDropped)
attr title "packet drop: interface down, packetBytes"
vector 40 MultiMecHost_delay.upf.ppp[1].ppp rcvdPkFromHl:vector(packetBytes) ETV
attr interpolationmode none
attr recordingmode vector(packetBytes)
attr source packetReceivedFromUpper
attr title "packets received from higher layer, packetBytes"
vector 41 MultiMecHost_delay.upf.ppp[1].ppp passedUpPk:vector(packetBytes) ETV
attr interpolationmode none
attr recordingmode vector(packetBytes)
attr source packetSentToUpper
attr title "packets passed to higher layer, packetBytes"
vector 42 MultiMecHost_delay.upf.ppp[1] packetDropInterfaceDown:vector(packetBytes) ETV
attr interpolationmode none
attr recordingmode vector(packetBytes)
attr source packetDropReasonIsInterfaceDown(packetDropped)
attr title "packet drops: interface down, packetBytes"
vector 43 MultiMecHost_delay.upf.ppp[1] packetDropNoCarrier:vector(packetBytes) ETV
attr interpolationmode none
attr recordingmode vector(packetBytes)
attr source packetDropReasonIsNoCarrier(packetDropped)
attr title "packet drops: no carrier, packetBytes"
vector 44 MultiMecHost_delay.upf.ipv4.ip packetDropAddressResolutionFailed:vector(packetBytes) ETV
attr interpolationmode none
attr recordingmode vector(packetBytes)
attr source packetDropReasonIsAddressResolutionFailed(packetDropped)
attr title "packet drop: address resolution failed, packetBytes"
vector 45 MultiMecHost_delay.upf.ipv4.ip packetDropHopLimitReached:vector(packetBytes) ETV
attr interpolationmode none
attr recordingmode vector(packetBytes)
attr source packetDropReasonIsHopLimitReached(packetDropped)
attr title "packet drop: hop limit reached, packetBytes"
vector 46 MultiMecHost_delay.upf.ipv4.ip packetDropForwardingDisabled:vector(packetBytes) ETV
attr interpolationmode none
attr recordingmode vector(packetBytes)
attr source packetDropReasonIsForwardingDisabled(packetDropped)
attr title "packet drop: forwarding disabled, packetBytes"
vector 47 MultiMecHost_delay.upf.ipv4.ip packetDropNoInterfaceFound:vector(packetBytes) ETV
attr interpolationmode none
attr recordingmode vector(packetBytes)
attr source packetDropReasonIsNoInterfaceFound(packetDropped)
attr title "packet drop: no interface found, packetBytes"
vector 48 MultiMecHost_delay.upf.ipv4.ip packetDropNoRouteFound:vector(packetBytes) ETV
attr interpolationmode none
attr recordingmode vector(packetBytes)
attr source packetDropReasonIsNoRouteFound(packetDropped)
attr title "packet drop: no route found, packetBytes"
vector 49 MultiMecHost_delay.upf.ipv4.ip packetDropUndefined:vector(packetBytes) ETV
attr interpolationmode none
attr recordingmode vector(packetBytes)
attr source packetDropReasonIsUndefined(packetDropped)
attr title "packet drop: undefined, packetBytes"
vector 50 MultiMecHost_delay.upf.ipv4.arp arpRequestSent:vector(packetBytes) ETV
attr recordingmode vector(packetBytes)
attr source arpRequestSent
attr title "ARP request sent, packetBytes"
vector 51 MultiMecHost_delay.upf.ipv4.arp arpReplySent:vector(packetBytes) ETV
attr recordingmode vector(packetBytes)
attr source arpReplySent
attr title "ARP replies sent, packetBytes"
vector 52 MultiMecHost_delay.upf.pppIf.queue queueLength:vector ETV
attr autoWarmupFilter false
attr interpolationmode sample-hold
attr recordingmode vector
attr source "warmup(atomic(constant0(packetPushEnded) + count(packetPushStarted) - count(packetPulled) - count(packetRemoved) - count(packetDropped)))"
attr title "queue length"
attr unit pk
vector 53 MultiMecHost_delay.upf.pppIf.queue queueBitLength:vector ETV
attr autoWarmupFilter false
attr interpolationmode sample-hold
attr recordingmode vector
attr source "warmup(atomic(constant0(packetPushEnded) + sum(packetLength(packetPushStarted)) - sum(packetLength(packetPulled)) - sum(packetLength(packetRemoved)) - sum(packetLength(packetDropped))))"
attr title "queue bit length"
attr unit b
vector 54 MultiMecHost_delay.upf.pppIf.queue queueingTime:vector ETV
attr interpolationmode none
attr recordingmode vector
attr source queueingTime(packetPulled)
attr title "queueing times"
attr unit s
vector 55 MultiMecHost_delay.upf.pppIf.queue incomingPacketLengths:vector ETV
attr interpolationmode none
attr recordingmode vector
attr source packetLength(packetPushStarted)
attr title "incoming packet lengths"
attr unit b
vector 56 MultiMecHost_delay.upf.pppIf.queue incomingDataRate:vector ETV
attr interpolationmode linear
attr recordingmode vector
attr source throughput(packetPushStarted)
attr title "incoming datarate"
attr unit bps
vector 57 MultiMecHost_delay.upf.pppIf.queue outgoingPacketLengths:vector ETV
attr interpolationmode none
attr recordingmode vector
attr source packetLength(packetPulled)
attr title "outgoing packet lengths"
attr unit b
vector 58 MultiMecHost_delay.upf.pppIf.queue outgoingDataRate:vector ETV
attr interpolationmode linear
attr recordingmode vector
attr source throughput(packetPulled)
attr title "outgoing datarate"
attr unit bps
vector 59 MultiMecHost_delay.upf.pppIf.queue droppedPacketLengthsQueueOverflow:vector ETV
attr interpolationmode none
attr recordingmode vector
attr source packetLength(packetDropReasonIsQueueOverflow(packetDropped))
attr title "dropped packet lengths: queue overflow"
attr unit b
vector 60 MultiMecHost_delay.upf.pppIf.queue flowQueueingTime:vector ETV
attr interpolationmode none
attr recordingmode vector
attr source queueingTime(demuxFlow(packetPulled))
attr title "flow queueing times"
attr unit s
vector 61 MultiMecHost_delay.upf.pppIf.queue flowIncomingDataRate:vector ETV
attr interpolationmode linear
attr recordingmode vector
attr source throughput(flowPacketLength(demuxFlow(packetPushStarted)))
attr title "flow specific incoming data rate"
attr unit bps
vector 62 MultiMecHost_delay.upf.pppIf.queue flowOutgoingDataRate:vector ETV
attr interpolationmode linear
attr recordingmode vector
attr source throughput(flowPacketLength(demuxFlow(packetPulled)))
attr title "flow specific outgoing data rate"
attr unit bps
vector 63 MultiMecHost_delay.upf.pppIf.ppp transmissionState:vector ETV
attr interpolationmode sample-hold
attr recordingmode vector
attr source transmissionStateChanged
attr title "tx state"
vector 64 MultiMecHost_delay.upf.pppIf.ppp txPk:vector(packetBytes) ETV
attr interpolationmode none
attr recordingmode vector(packetBytes)
attr source packetSentToLower
attr title "packets transmitted, packetBytes"
vector 65 MultiMecHost_delay.upf.pppIf.ppp rxPkOk:vector(packetBytes) ETV
attr interpolationmode none
attr recordingmode vector(packetBytes)
attr source rxPkOk
attr title "packets received OK, packetBytes"
vector 66 MultiMecHost_delay.upf.pppIf.ppp packetDropIncorrectlyReceived:vector(packetBytes) ETV
attr interpolationmode none
attr recordingmode vector(packetBytes)
attr source packetDropReasonIsIncorrectlyReceived(packetDropped)
attr title "packet drop: incorrectly received, packetBytes"
vector 67 MultiMecHost_delay.upf.pppIf.ppp packetDropInterfaceDown:vector(packetBytes) ETV
attr interpolationmode none
attr recordingmode vector(packetBytes)
attr source packetDropReasonIsInterfaceDown(packetDropped)
attr title "packet drop: interface down, packetBytes"
vector 68 MultiMecHost_delay.upf.pppIf.ppp rcvdPkFromHl:vector(packetBytes) ETV
attr interpolationmode none
attr recordingmode vector(packetBytes)
attr source packetReceivedFromUpper
attr title "packets received from higher layer, packetBytes"
vector 69 MultiMecHost_delay.upf.pppIf.ppp passedUpPk:vector(packetBytes) ETV
attr interpolationmode none
attr recordingmode vector(packetBytes)
attr source packetSentToUpper
attr title "packets passed to higher layer, packetBytes"
vector 70 MultiMecHost_delay.upf.pppIf packetDropInterfaceDown:vector(packetBytes) ETV
attr interpolationmode none
attr recordingmode vector(packetBytes)
attr source packetDropReasonIsInterfaceDown(packetDropped)
attr title "packet drops: interface down, packetBytes"
vector 71 MultiMecHost_delay.upf.pppIf packetDropNoCarrier:vector(packetBytes) ETV
attr interpolationmode none
attr recordingmode vector(packetBytes)
attr source packetDropReasonIsNoCarrier(packetDropped)
attr title "packet drops: no carrier, packetBytes"
vector 72 MultiMecHost_delay.upf.udp packetSent:vector(packetBytes) ETV
attr interpolationmode none
attr recordingmode vector(packetBytes)
attr source packetSent
attr title "packets sent, packetBytes"
vector 73 MultiMecHost_delay.upf.udp packetReceived:vector(packetBytes) ETV
attr interpolationmode none
attr recordingmode vector(packetBytes)
attr source packetReceived
attr title "packets received, packetBytes"
vector 74 MultiMecHost_delay.upf.udp passedUpPk:vector(count) ETV
attr interpolationmode none
attr recordingmode vector(count)
attr source packetSentToUpper
attr title "packets passed up, count"
vector 75 MultiMecHost_delay.upf.udp droppedPkWrongPort:vector(count) ETV
attr interpolationmode none
attr recordingmode vector(count)
attr source packetDropReasonIsNoPortFound(packetDropped)
attr title "packets dropped (wrong port), count"
vector 76 MultiMecHost_delay.upf.udp droppedPkBadChecksum:vector(count) ETV
attr interpolationmode none
attr recordingmode vector(count)
attr source packetDropReasonIsIncorrectlyReceived(packetDropped)
attr title "packets dropped (checksum error), count"
vector 77 MultiMecHost_delay.iUpf1.lo[0].lo rcvdPkFromHl:vector(packetBytes) ETV
attr interpolationmode none
attr recordingmode vector(packetBytes)
attr source packetReceivedFromUpper
attr title "packets received from higher layer, packetBytes"
vector 78 MultiMecHost_delay.iUpf1.lo[0].lo passedUpPk:vector(packetBytes) ETV
attr interpolationmode none
attr recordingmode vector(packetBytes)
attr source packetSentToUpper
attr title "packets passed to higher layer, packetBytes"
vector 79 MultiMecHost_delay.iUpf1.lo[0] packetDropInterfaceDown:vector(packetBytes) ETV
attr interpolationmode none
attr recordingmode vector(packetBytes)
attr source packetDropReasonIsInterfaceDown(packetDropped)
attr title "packet drops: interface down, packetBytes"
vector 80 MultiMecHost_delay.iUpf1.lo[0] packetDropNoCarrier:vector(packetBytes) ETV
attr interpolationmode none
attr recordingmode vector(packetBytes)
attr source packetDropReasonIsNoCarrier(packetDropped)
attr title "packet drops: no carrier, packetBytes"
vector 81 MultiMecHost_delay.iUpf1.ppp[0].queue queueLength:vector ETV
attr autoWarmupFilter false
attr interpolationmode sample-hold
attr recordingmode vector
attr source "warmup(atomic(constant0(packetPushEnded) + count(packetPushStarted) - count(packetPulled) - count(packetRemoved) - count(packetDropped)))"
attr title "queue length"
attr unit pk
vector 82 MultiMecHost_delay.iUpf1.ppp[0].queue queueBitLength:vector ETV
attr autoWarmupFilter false
attr interpolationmode sample-hold
attr recordingmode vector
attr source "warmup(atomic(constant0(packetPushEnded) + sum(packetLength(packetPushStarted)) - sum(packetLength(packetPulled)) - sum(packetLength(packetRemoved)) - sum(packetLength(packetDropped))))"
attr title "queue bit length"
attr unit b
vector 83 MultiMecHost_delay.iUpf1.ppp[0].queue queueingTime:vector ETV
attr interpolationmode none
attr recordingmode vector
attr source queueingTime(packetPulled)
attr title "queueing times"
attr unit s
vector 84 MultiMecHost_delay.iUpf1.ppp[0].queue incomingPacketLengths:vector ETV
attr interpolationmode none
attr recordingmode vector
attr source packetLength(packetPushStarted)
attr title "incoming packet lengths"
attr unit b
vector 85 MultiMecHost_delay.iUpf1.ppp[0].queue incomingDataRate:vector ETV
attr interpolationmode linear
attr recordingmode vector
attr source throughput(packetPushStarted)
attr title "incoming datarate"
attr unit bps
vector 86 MultiMecHost_delay.iUpf1.ppp[0].queue outgoingPacketLengths:vector ETV
attr interpolationmode none
attr recordingmode vector
attr source packetLength(packetPulled)
attr title "outgoing packet lengths"
attr unit b
vector 87 MultiMecHost_delay.iUpf1.ppp[0].queue outgoingDataRate:vector ETV
attr interpolationmode linear
attr recordingmode vector
attr source throughput(packetPulled)
attr title "outgoing datarate"
attr unit bps
vector 88 MultiMecHost_delay.iUpf1.ppp[0].queue droppedPacketLengthsQueueOverflow:vector ETV
attr interpolationmode none
attr recordingmode vector
attr source packetLength(packetDropReasonIsQueueOverflow(packetDropped))
attr title "dropped packet lengths: queue overflow"
attr unit b
vector 89 MultiMecHost_delay.iUpf1.ppp[0].queue flowQueueingTime:vector ETV
attr interpolationmode none
attr recordingmode vector
attr source queueingTime(demuxFlow(packetPulled))
attr title "flow queueing times"
attr unit s
vector 90 MultiMecHost_delay.iUpf1.ppp[0].queue flowIncomingDataRate:vector ETV
attr interpolationmode linear
attr recordingmode vector
attr source throughput(flowPacketLength(demuxFlow(packetPushStarted)))
attr title "flow specific incoming data rate"
attr unit bps
vector 91 MultiMecHost_delay.iUpf1.ppp[0].queue flowOutgoingDataRate:vector ETV
attr interpolationmode linear
attr recordingmode vector
attr source throughput(flowPacketLength(demuxFlow(packetPulled)))
attr title "flow specific outgoing data rate"
attr unit bps
vector 92 MultiMecHost_delay.iUpf1.ppp[0].ppp transmissionState:vector ETV
attr interpolationmode sample-hold
attr recordingmode vector
attr source transmissionStateChanged
attr title "tx state"
vector 93 MultiMecHost_delay.iUpf1.ppp[0].ppp txPk:vector(packetBytes) ETV
attr interpolationmode none
attr recordingmode vector(packetBytes)
attr source packetSentToLower
attr title "packets transmitted, packetBytes"
vector 94 MultiMecHost_delay.iUpf1.ppp[0].ppp rxPkOk:vector(packetBytes) ETV
attr interpolationmode none
attr recordingmode vector(packetBytes)
attr source rxPkOk
attr title "packets received OK, packetBytes"
vector 95 MultiMecHost_delay.iUpf1.ppp[0].ppp packetDropIncorrectlyReceived:vector(packetBytes) ETV
attr interpolationmode none
attr recordingmode vector(packetBytes)
attr source packetDropReasonIsIncorrectlyReceived(packetDropped)
attr title "packet drop: incorrectly received, packetBytes"
vector 96 MultiMecHost_delay.iUpf1.ppp[0].ppp packetDropInterfaceDown:vector(packetBytes) ETV
attr interpolationmode none
attr recordingmode vector(packetBytes)
attr source packetDropReasonIsInterfaceDown(packetDropped)
attr title "packet drop: interface down, packetBytes"
vector 97 MultiMecHost_delay.iUpf1.ppp[0].ppp rcvdPkFromHl:vector(packetBytes) ETV
attr interpolationmode none
attr recordingmode vector(packetBytes)
attr source packetReceivedFromUpper
attr title "packets received from higher layer, packetBytes"
vector 98 MultiMecHost_delay.iUpf1.ppp[0].ppp passedUpPk:vector(packetBytes) ETV
attr interpolationmode none
attr recordingmode vector(packetBytes)
attr source packetSentToUpper
attr title "packets passed to higher layer, packetBytes"
vector 99 MultiMecHost_delay.iUpf1.ppp[0] packetDropInterfaceDown:vector(packetBytes) ETV
attr interpolationmode none
attr recordingmode vector(packetBytes)
attr source packetDropReasonIsInterfaceDown(packetDropped)
attr title "packet drops: interface down, packetBytes"
vector 100 MultiMecHost_delay.iUpf1.ppp[0] packetDropNoCarrier:vector(packetBytes) ETV
attr interpolationmode none
attr recordingmode vector(packetBytes)
attr source packetDropReasonIsNoCarrier(packetDropped)
attr title "packet drops: no carrier, packetBytes"
vector 101 MultiMecHost_delay.iUpf1.ppp[1].queue queueLength:vector ETV
attr autoWarmupFilter false
attr interpolationmode sample-hold
attr recordingmode vector
attr source "warmup(atomic(constant0(packetPushEnded) + count(packetPushStarted) - count(packetPulled) - count(packetRemoved) - count(packetDropped)))"
attr title "queue length"
attr unit pk
vector 102 MultiMecHost_delay.iUpf1.ppp[1].queue queueBitLength:vector ETV
attr autoWarmupFilter false
attr interpolationmode sample-hold
attr recordingmode vector
attr source "warmup(atomic(constant0(packetPushEnded) + sum(packetLength(packetPushStarted)) - sum(packetLength(packetPulled)) - sum(packetLength(packetRemoved)) - sum(packetLength(packetDropped))))"
attr title "queue bit length"
attr unit b
vector 103 MultiMecHost_delay.iUpf1.ppp[1].queue queueingTime:vector ETV
attr interpolationmode none
attr recordingmode vector
attr source queueingTime(packetPulled)
attr title "queueing times"
attr unit s
vector 104 MultiMecHost_delay.iUpf1.ppp[1].queue incomingPacketLengths:vector ETV
attr interpolationmode none
attr recordingmode vector
attr source packetLength(packetPushStarted)
attr title "incoming packet lengths"
attr unit b
vector 105 MultiMecHost_delay.iUpf1.ppp[1].queue incomingDataRate:vector ETV
attr interpolationmode linear
attr recordingmode vector
attr source throughput(packetPushStarted)
attr title "incoming datarate"
attr unit bps
vector 106 MultiMecHost_delay.iUpf1.ppp[1].queue outgoingPacketLengths:vector ETV
attr interpolationmode none
attr recordingmode vector
attr source packetLength(packetPulled)
attr title "outgoing packet lengths"
attr unit b
vector 107 MultiMecHost_delay.iUpf1.ppp[1].queue outgoingDataRate:vector ETV
attr interpolationmode linear
attr recordingmode vector
attr source throughput(packetPulled)
attr title "outgoing datarate"
attr unit bps
vector 108 MultiMecHost_delay.iUpf1.ppp[1].queue droppedPacketLengthsQueueOverflow:vector ETV
attr interpolationmode none
attr recordingmode vector
attr source packetLength(packetDropReasonIsQueueOverflow(packetDropped))
attr title "dropped packet lengths: queue overflow"
attr unit b
vector 109 MultiMecHost_delay.iUpf1.ppp[1].queue flowQueueingTime:vector ETV
attr interpolationmode none
attr recordingmode vector
attr source queueingTime(demuxFlow(packetPulled))
attr title "flow queueing times"
attr unit s
vector 110 MultiMecHost_delay.iUpf1.ppp[1].queue flowIncomingDataRate:vector ETV
attr interpolationmode linear
attr recordingmode vector
attr source throughput(flowPacketLength(demuxFlow(packetPushStarted)))
attr title "flow specific incoming data rate"
attr unit bps
vector 111 MultiMecHost_delay.iUpf1.ppp[1].queue flowOutgoingDataRate:vector ETV
attr interpolationmode linear
attr recordingmode vector
attr source throughput(flowPacketLength(demuxFlow(packetPulled)))
attr title "flow specific outgoing data rate"
attr unit bps
vector 112 MultiMecHost_delay.iUpf1.ppp[1].ppp transmissionState:vector ETV
attr interpolationmode sample-hold
attr recordingmode vector
attr source transmissionStateChanged
attr title "tx state"
vector 113 MultiMecHost_delay.iUpf1.ppp[1].ppp txPk:vector(packetBytes) ETV
attr interpolationmode none
attr recordingmode vector(packetBytes)
attr source packetSentToLower
attr title "packets transmitted, packetBytes"
vector 114 MultiMecHost_delay.iUpf1.ppp[1].ppp rxPkOk:vector(packetBytes) ETV
attr interpolationmode none
attr recordingmode vector(packetBytes)
attr source rxPkOk
attr title "packets received OK, packetBytes"
vector 115 MultiMecHost_delay.iUpf1.ppp[1].ppp packetDropIncorrectlyReceived:vector(packetBytes) ETV
attr interpolationmode none
attr recordingmode vector(packetBytes)
attr source packetDropReasonIsIncorrectlyReceived(packetDropped)
attr title "packet drop: incorrectly received, packetBytes"
vector 116 MultiMecHost_delay.iUpf1.ppp[1].ppp packetDropInterfaceDown:vector(packetBytes) ETV
attr interpolationmode none
attr recordingmode vector(packetBytes)
attr source packetDropReasonIsInterfaceDown(packetDropped)
attr title "packet drop: interface down, packetBytes"
vector 117 MultiMecHost_delay.iUpf1.ppp[1].ppp rcvdPkFromHl:vector(packetBytes) ETV
attr interpolationmode none
attr recordingmode vector(packetBytes)
attr source packetReceivedFromUpper
attr title "packets received from higher layer, packetBytes"
vector 118 MultiMecHost_delay.iUpf1.ppp[1].ppp passedUpPk:vector(packetBytes) ETV
attr interpolationmode none
attr recordingmode vector(packetBytes)
attr source packetSentToUpper
attr title "packets passed to higher layer, packetBytes"
vector 119 MultiMecHost_delay.iUpf1.ppp[1] packetDropInterfaceDown:vector(packetBytes) ETV
attr interpolationmode none
attr recordingmode vector(packetBytes)
attr source packetDropReasonIsInterfaceDown(packetDropped)
attr title "packet drops: interface down, packetBytes"
vector 120 MultiMecHost_delay.iUpf1.ppp[1] packetDropNoCarrier:vector(packetBytes) ETV
attr interpolationmode none
attr recordingmode vector(packetBytes)
attr source packetDropReasonIsNoCarrier(packetDropped)
attr title "packet drops: no carrier, packetBytes"
vector 121 MultiMecHost_delay.iUpf1.ppp[2].queue queueLength:vector ETV
attr autoWarmupFilter false
attr interpolationmode sample-hold
attr recordingmode vector
attr source "warmup(atomic(constant0(packetPushEnded) + count(packetPushStarted) - count(packetPulled) - count(packetRemoved) - count(packetDropped)))"
attr title "queue length"
attr unit pk
vector 122 MultiMecHost_delay.iUpf1.ppp[2].queue queueBitLength:vector ETV
attr autoWarmupFilter false
attr interpolationmode sample-hold
attr recordingmode vector
attr source "warmup(atomic(constant0(packetPushEnded) + sum(packetLength(packetPushStarted)) - sum(packetLength(packetPulled)) - sum(packetLength(packetRemoved)) - sum(packetLength(packetDropped))))"
attr title "queue bit length"
attr unit b
vector 123 MultiMecHost_delay.iUpf1.ppp[2].queue queueingTime:vector ETV
attr interpolationmode none
attr recordingmode vector
attr source queueingTime(packetPulled)
attr title "queueing times"
attr unit s
vector 124 MultiMecHost_delay.iUpf1.ppp[2].queue incomingPacketLengths:vector ETV
attr interpolationmode none
attr recordingmode vector
attr source packetLength(packetPushStarted)
attr title "incoming packet lengths"
attr unit b
vector 125 MultiMecHost_delay.iUpf1.ppp[2].queue incomingDataRate:vector ETV
attr interpolationmode linear
attr recordingmode vector
attr source throughput(packetPushStarted)
attr title "incoming datarate"
attr unit bps
vector 126 MultiMecHost_delay.iUpf1.ppp[2].queue outgoingPacketLengths:vector ETV
attr interpolationmode none
attr recordingmode vector
attr source packetLength(packetPulled)
attr title "outgoing packet lengths"
attr unit b
vector 127 MultiMecHost_delay.iUpf1.ppp[2].queue outgoingDataRate:vector ETV
attr interpolationmode linear
attr recordingmode vector
attr source throughput(packetPulled)
attr title "outgoing datarate"
attr unit bps
vector 128 MultiMecHost_delay.iUpf1.ppp[2].queue droppedPacketLengthsQueueOverflow:vector ETV
attr interpolationmode none
attr recordingmode vector
attr source packetLength(packetDropReasonIsQueueOverflow(packetDropped))
attr title "dropped packet lengths: queue overflow"
attr unit b
vector 129 MultiMecHost_delay.iUpf1.ppp[2].queue flowQueueingTime:vector ETV
attr interpolationmode none
attr recordingmode vector
attr source queueingTime(demuxFlow(packetPulled))
attr title "flow queueing times"
attr unit s
vector 130 MultiMecHost_delay.iUpf1.ppp[2].queue flowIncomingDataRate:vector ETV
attr interpolationmode linear
attr recordingmode vector
attr source throughput(flowPacketLength(demuxFlow(packetPushStarted)))
attr title "flow specific incoming data rate"
attr unit bps
vector 131 MultiMecHost_delay.iUpf1.ppp[2].queue flowOutgoingDataRate:vector ETV
attr interpolationmode linear
attr recordingmode vector
attr source throughput(flowPacketLength(demuxFlow(packetPulled)))
attr title "flow specific outgoing data rate"
attr unit bps
vector 132 MultiMecHost_delay.iUpf1.ppp[2].ppp transmissionState:vector ETV
attr interpolationmode sample-hold
attr recordingmode vector
attr source transmissionStateChanged
attr title "tx state"
vector 133 MultiMecHost_delay.iUpf1.ppp[2].ppp txPk:vector(packetBytes) ETV
attr interpolationmode none
attr recordingmode vector(packetBytes)
attr source packetSentToLower
attr title "packets transmitted, packetBytes"
vector 134 MultiMecHost_delay.iUpf1.ppp[2].ppp rxPkOk:vector(packetBytes) ETV
attr interpolationmode none
attr recordingmode vector(packetBytes)
attr source rxPkOk
attr title "packets received OK, packetBytes"
vector 135 MultiMecHost_delay.iUpf1.ppp[2].ppp packetDropIncorrectlyReceived:vector(packetBytes) ETV
attr interpolationmode none
attr recordingmode vector(packetBytes)
attr source packetDropReasonIsIncorrectlyReceived(packetDropped)
attr title "packet drop: incorrectly received, packetBytes"
vector 136 MultiMecHost_delay.iUpf1.ppp[2].ppp packetDropInterfaceDown:vector(packetBytes) ETV
attr interpolationmode none
attr recordingmode vector(packetBytes)
attr source packetDropReasonIsInterfaceDown(packetDropped)
attr title "packet drop: interface down, packetBytes"
vector 137 MultiMecHost_delay.iUpf1.ppp[2].ppp rcvdPkFromHl:vector(packetBytes) ETV
attr interpolationmode none
attr recordingmode vector(packetBytes)
attr source packetReceivedFromUpper
attr title "packets received from higher layer, packetBytes"
vector 138 MultiMecHost_delay.iUpf1.ppp[2].ppp passedUpPk:vector(packetBytes) ETV
attr interpolationmode none
attr recordingmode vector(packetBytes)
attr source packetSentToUpper
attr title "packets passed to higher layer, packetBytes"
vector 139 MultiMecHost_delay.iUpf1.ppp[2] packetDropInterfaceDown:vector(packetBytes) ETV
attr interpolationmode none
attr recordingmode vector(packetBytes)
attr source packetDropReasonIsInterfaceDown(packetDropped)
attr title "packet drops: interface down, packetBytes"
vector 140 MultiMecHost_delay.iUpf1.ppp[2] packetDropNoCarrier:vector(packetBytes) ETV
attr interpolationmode none
attr recordingmode vector(packetBytes)
attr source packetDropReasonIsNoCarrier(packetDropped)
attr title "packet drops: no carrier, packetBytes"
vector 141 MultiMecHost_delay.iUpf1.ppp[3].queue queueLength:vector ETV
attr autoWarmupFilter false
attr interpolationmode sample-hold
attr recordingmode vector
attr source "warmup(atomic(constant0(packetPushEnded) + count(packetPushStarted) - count(packetPulled) - count(packetRemoved) - count(packetDropped)))"
attr title "queue length"
attr unit pk
vector 142 MultiMecHost_delay.iUpf1.ppp[3].queue queueBitLength:vector ETV
attr autoWarmupFilter false
attr interpolationmode sample-hold
attr recordingmode vector
attr source "warmup(atomic(constant0(packetPushEnded) + sum(packetLength(packetPushStarted)) - sum(packetLength(packetPulled)) - sum(packetLength(packetRemoved)) - sum(packetLength(packetDropped))))"
attr title "queue bit length"
attr unit b
vector 143 MultiMecHost_delay.iUpf1.ppp[3].queue queueingTime:vector ETV
attr interpolationmode none
attr recordingmode vector
attr source queueingTime(packetPulled)
attr title "queueing times"
attr unit s
vector 144 MultiMecHost_delay.iUpf1.ppp[3].queue incomingPacketLengths:vector ETV
attr interpolationmode none
attr recordingmode vector
attr source packetLength(packetPushStarted)
attr title "incoming packet lengths"
attr unit b
vector 145 MultiMecHost_delay.iUpf1.ppp[3].queue incomingDataRate:vector ETV
attr interpolationmode linear
attr recordingmode vector
attr source throughput(packetPushStarted)
attr title "incoming datarate"
attr unit bps
vector 146 MultiMecHost_delay.iUpf1.ppp[3].queue outgoingPacketLengths:vector ETV
attr interpolationmode none
attr recordingmode vector
attr source packetLength(packetPulled)
attr title "outgoing packet lengths"
attr unit b
vector 147 MultiMecHost_delay.iUpf1.ppp[3].queue outgoingDataRate:vector ETV
attr interpolationmode linear
attr recordingmode vector
attr source throughput(packetPulled)
attr title "outgoing datarate"
attr unit bps
vector 148 MultiMecHost_delay.iUpf1.ppp[3].queue droppedPacketLengthsQueueOverflow:vector ETV
attr interpolationmode none
attr recordingmode vector
attr source packetLength(packetDropReasonIsQueueOverflow(packetDropped))
attr title "dropped packet lengths: queue overflow"
attr unit b
vector 149 MultiMecHost_delay.iUpf1.ppp[3].queue flowQueueingTime:vector ETV
attr interpolationmode none
attr recordingmode vector
attr source queueingTime(demuxFlow(packetPulled))
attr title "flow queueing times"
attr unit s
vector 150 MultiMecHost_delay.iUpf1.ppp[3].queue flowIncomingDataRate:vector ETV
attr interpolationmode linear
attr recordingmode vector
attr source throughput(flowPacketLength(demuxFlow(packetPushStarted)))
attr title "flow specific incoming data rate"
attr unit bps
vector 151 MultiMecHost_delay.iUpf1.ppp[3].queue flowOutgoingDataRate:vector ETV
attr interpolationmode linear
attr recordingmode vector
attr source throughput(flowPacketLength(demuxFlow(packetPulled)))
attr title "flow specific outgoing data rate"
attr unit bps
vector 152 MultiMecHost_delay.iUpf1.ppp[3].ppp transmissionState:vector ETV
attr interpolationmode sample-hold
attr recordingmode vector
attr source transmissionStateChanged
attr title "tx state"
vector 153 MultiMecHost_delay.iUpf1.ppp[3].ppp txPk:vector(packetBytes) ETV
attr interpolationmode none
attr recordingmode vector(packetBytes)
attr source packetSentToLower
attr title "packets transmitted, packetBytes"
vector 154 MultiMecHost_delay.iUpf1.ppp[3].ppp rxPkOk:vector(packetBytes) ETV
attr interpolationmode none
attr recordingmode vector(packetBytes)
attr source rxPkOk
attr title "packets received OK, packetBytes"
vector 155 MultiMecHost_delay.iUpf1.ppp[3].ppp packetDropIncorrectlyReceived:vector(packetBytes) ETV
attr interpolationmode none
attr recordingmode vector(packetBytes)
attr source packetDropReasonIsIncorrectlyReceived(packetDropped)
attr title "packet drop: incorrectly received, packetBytes"
vector 156 MultiMecHost_delay.iUpf1.ppp[3].ppp packetDropInterfaceDown:vector(packetBytes) ETV
attr interpolationmode none
attr recordingmode vector(packetBytes)
attr source packetDropReasonIsInterfaceDown(packetDropped)
attr title "packet drop: interface down, packetBytes"
vector 157 MultiMecHost_delay.iUpf1.ppp[3].ppp rcvdPkFromHl:vector(packetBytes) ETV
attr interpolationmode none
attr recordingmode vector(packetBytes)
attr source packetReceivedFromUpper
attr title "packets received from higher layer, packetBytes"
vector 158 MultiMecHost_delay.iUpf1.ppp[3].ppp passedUpPk:vector(packetBytes) ETV
attr interpolationmode none
attr recordingmode vector(packetBytes)
attr source packetSentToUpper
attr title "packets passed to higher layer, packetBytes"
vector 159 MultiMecHost_delay.iUpf1.ppp[3] packetDropInterfaceDown:vector(packetBytes) ETV
attr interpolationmode none
attr recordingmode vector(packetBytes)
attr source packetDropReasonIsInterfaceDown(packetDropped)
attr title "packet drops: interface down, packetBytes"
vector 160 MultiMecHost_delay.iUpf1.ppp[3] packetDropNoCarrier:vector(packetBytes) ETV
attr interpolationmode none
attr recordingmode vector(packetBytes)
attr source packetDropReasonIsNoCarrier(packetDropped)
attr title "packet drops: no carrier, packetBytes"
vector 161 MultiMecHost_delay.iUpf1.ipv4.ip packetDropAddressResolutionFailed:vector(packetBytes) ETV
attr interpolationmode none
attr recordingmode vector(packetBytes)
attr source packetDropReasonIsAddressResolutionFailed(packetDropped)
attr title "packet drop: address resolution failed, packetBytes"
vector 162 MultiMecHost_delay.iUpf1.ipv4.ip packetDropHopLimitReached:vector(packetBytes) ETV
attr interpolationmode none
attr recordingmode vector(packetBytes)
attr source packetDropReasonIsHopLimitReached(packetDropped)
attr title "packet drop: hop limit reached, packetBytes"
vector 163 MultiMecHost_delay.iUpf1.ipv4.ip packetDropForwardingDisabled:vector(packetBytes) ETV
attr interpolationmode none
attr recordingmode vector(packetBytes)
attr source packetDropReasonIsForwardingDisabled(packetDropped)
attr title "packet drop: forwarding disabled, packetBytes"
vector 164 MultiMecHost_delay.iUpf1.ipv4.ip packetDropNoInterfaceFound:vector(packetBytes) ETV
attr interpolationmode none
attr recordingmode vector(packetBytes)
attr source packetDropReasonIsNoInterfaceFound(packetDropped)
attr title "packet drop: no interface found, packetBytes"
vector 165 MultiMecHost_delay.iUpf1.ipv4.ip packetDropNoRouteFound:vector(packetBytes) ETV
attr interpolationmode none
attr recordingmode vector(packetBytes)
attr source packetDropReasonIsNoRouteFound(packetDropped)
attr title "packet drop: no route found, packetBytes"
vector 166 MultiMecHost_delay.iUpf1.ipv4.ip packetDropUndefined:vector(packetBytes) ETV
attr interpolationmode none
attr recordingmode vector(packetBytes)
attr source packetDropReasonIsUndefined(packetDropped)
attr title "packet drop: undefined, packetBytes"
vector 167 MultiMecHost_delay.iUpf1.ipv4.arp arpRequestSent:vector(packetBytes) ETV
attr recordingmode vector(packetBytes)
attr source arpRequestSent
attr title "ARP request sent, packetBytes"
vector 168 MultiMecHost_delay.iUpf1.ipv4.arp arpReplySent:vector(packetBytes) ETV
attr recordingmode vector(packetBytes)
attr source arpReplySent
attr title "ARP replies sent, packetBytes"
vector 169 MultiMecHost_delay.iUpf1.pppIf.queue queueLength:vector ETV
attr autoWarmupFilter false
attr interpolationmode sample-hold
attr recordingmode vector
attr source "warmup(atomic(constant0(packetPushEnded) + count(packetPushStarted) - count(packetPulled) - count(packetRemoved) - count(packetDropped)))"
attr title "queue length"
attr unit pk
vector 170 MultiMecHost_delay.iUpf1.pppIf.queue queueBitLength:vector ETV
attr autoWarmupFilter false
attr interpolationmode sample-hold
attr recordingmode vector
attr source "warmup(atomic(constant0(packetPushEnded) + sum(packetLength(packetPushStarted)) - sum(packetLength(packetPulled)) - sum(packetLength(packetRemoved)) - sum(packetLength(packetDropped))))"
attr title "queue bit length"
attr unit b
vector 171 MultiMecHost_delay.iUpf1.pppIf.queue queueingTime:vector ETV
attr interpolationmode none
attr recordingmode vector
attr source queueingTime(packetPulled)
attr title "queueing times"
attr unit s
vector 172 MultiMecHost_delay.iUpf1.pppIf.queue incomingPacketLengths:vector ETV
attr interpolationmode none
attr recordingmode vector
attr source packetLength(packetPushStarted)
attr title "incoming packet lengths"
attr unit b
vector 173 MultiMecHost_delay.iUpf1.pppIf.queue incomingDataRate:vector ETV
attr interpolationmode linear
attr recordingmode vector
attr source throughput(packetPushStarted)
attr title "incoming datarate"
attr unit bps
vector 174 MultiMecHost_delay.iUpf1.pppIf.queue outgoingPacketLengths:vector ETV
attr interpolationmode none
attr recordingmode vector
attr source packetLength(packetPulled)
attr title "outgoing packet lengths"
attr unit b
vector 175 MultiMecHost_delay.iUpf1.pppIf.queue outgoingDataRate:vector ETV
attr interpolationmode linear
attr recordingmode vector
attr source throughput(packetPulled)
attr title "outgoing datarate"
attr unit bps
vector 176 MultiMecHost_delay.iUpf1.pppIf.queue droppedPacketLengthsQueueOverflow:vector ETV
attr interpolationmode none
attr recordingmode vector
attr source packetLength(packetDropReasonIsQueueOverflow(packetDropped))
attr title "dropped packet lengths: queue overflow"
attr unit b
vector 177 MultiMecHost_delay.iUpf1.pppIf.queue flowQueueingTime:vector ETV
attr interpolationmode none
attr recordingmode vector
attr source queueingTime(demuxFlow(packetPulled))
attr title "flow queueing times"
attr unit s
vector 178 MultiMecHost_delay.iUpf1.pppIf.queue flowIncomingDataRate:vector ETV
attr interpolationmode linear
attr recordingmode vector
attr source throughput(flowPacketLength(demuxFlow(packetPushStarted)))
attr title "flow specific incoming data rate"
attr unit bps
vector 179 MultiMecHost_delay.iUpf1.pppIf.queue flowOutgoingDataRate:vector ETV
attr interpolationmode linear
attr recordingmode vector
attr source throughput(flowPacketLength(demuxFlow(packetPulled)))
attr title "flow specific outgoing data rate"
attr unit bps
vector 180 MultiMecHost_delay.iUpf1.pppIf.ppp transmissionState:vector ETV
attr interpolationmode sample-hold
attr recordingmode vector
attr source transmissionStateChanged
attr title "tx state"
vector 181 MultiMecHost_delay.iUpf1.pppIf.ppp txPk:vector(packetBytes) ETV
attr interpolationmode none
attr recordingmode vector(packetBytes)
attr source packetSentToLower
attr title "packets transmitted, packetBytes"
vector 182 MultiMecHost_delay.iUpf1.pppIf.ppp rxPkOk:vector(packetBytes) ETV
attr interpolationmode none
attr recordingmode vector(packetBytes)
attr source rxPkOk
attr title "packets received OK, packetBytes"
vector 183 MultiMecHost_delay.iUpf1.pppIf.ppp packetDropIncorrectlyReceived:vector(packetBytes) ETV
attr interpolationmode none
attr recordingmode vector(packetBytes)
attr source packetDropReasonIsIncorrectlyReceived(packetDropped)
attr title "packet drop: incorrectly received, packetBytes"
vector 184 MultiMecHost_delay.iUpf1.pppIf.ppp packetDropInterfaceDown:vector(packetBytes) ETV
attr interpolationmode none
attr recordingmode vector(packetBytes)
attr source packetDropReasonIsInterfaceDown(packetDropped)
attr title "packet drop: interface down, packetBytes"
vector 185 MultiMecHost_delay.iUpf1.pppIf.ppp rcvdPkFromHl:vector(packetBytes) ETV
attr interpolationmode none
attr recordingmode vector(packetBytes)
attr source packetReceivedFromUpper
attr title "packets received from higher layer, packetBytes"
vector 186 MultiMecHost_delay.iUpf1.pppIf.ppp passedUpPk:vector(packetBytes) ETV
attr interpolationmode none
attr recordingmode vector(packetBytes)
attr source packetSentToUpper
attr title "packets passed to higher layer, packetBytes"
vector 187 MultiMecHost_delay.iUpf1.pppIf packetDropInterfaceDown:vector(packetBytes) ETV
attr interpolationmode none
attr recordingmode vector(packetBytes)
attr source packetDropReasonIsInterfaceDown(packetDropped)
attr title "packet drops: interface down, packetBytes"
vector 188 MultiMecHost_delay.iUpf1.pppIf packetDropNoCarrier:vector(packetBytes) ETV
attr interpolationmode none
attr recordingmode vector(packetBytes)
attr source packetDropReasonIsNoCarrier(packetDropped)
attr title "packet drops: no carrier, packetBytes"
vector 189 MultiMecHost_delay.iUpf1.udp packetSent:vector(packetBytes) ETV
attr interpolationmode none
attr recordingmode vector(packetBytes)
attr source packetSent
attr title "packets sent, packetBytes"
vector 190 MultiMecHost_delay.iUpf1.udp packetReceived:vector(packetBytes) ETV
attr interpolationmode none
attr recordingmode vector(packetBytes)
attr source packetReceived
attr title "packets received, packetBytes"
vector 191 MultiMecHost_delay.iUpf1.udp passedUpPk:vector(count) ETV
attr interpolationmode none
attr recordingmode vector(count)
attr source packetSentToUpper
attr title "packets passed up, count"
vector 192 MultiMecHost_delay.iUpf1.udp droppedPkWrongPort:vector(count) ETV
attr interpolationmode none
attr recordingmode vector(count)
attr source packetDropReasonIsNoPortFound(packetDropped)
attr title "packets dropped (wrong port), count"
vector 193 MultiMecHost_delay.iUpf1.udp droppedPkBadChecksum:vector(count) ETV
attr interpolationmode none
attr recordingmode vector(count)
attr source packetDropReasonIsIncorrectlyReceived(packetDropped)
attr title "packets dropped (checksum error), count"
vector 194 MultiMecHost_delay.iUpf2.lo[0].lo rcvdPkFromHl:vector(packetBytes) ETV
attr interpolationmode none
attr recordingmode vector(packetBytes)
attr source packetReceivedFromUpper
attr title "packets received from higher layer, packetBytes"
vector 195 MultiMecHost_delay.iUpf2.lo[0].lo passedUpPk:vector(packetBytes) ETV
attr interpolationmode none
attr recordingmode vector(packetBytes)
attr source packetSentToUpper
attr title "packets passed to higher layer, packetBytes"
vector 196 MultiMecHost_delay.iUpf2.lo[0] packetDropInterfaceDown:vector(packetBytes) ETV
attr interpolationmode none
attr recordingmode vector(packetBytes)
attr source packetDropReasonIsInterfaceDown(packetDropped)
attr title "packet drops: interface down, packetBytes"
vector 197 MultiMecHost_delay.iUpf2.lo[0] packetDropNoCarrier:vector(packetBytes) ETV
attr interpolationmode none
attr recordingmode vector(packetBytes)
attr source packetDropReasonIsNoCarrier(packetDropped)
attr title "packet drops: no carrier, packetBytes"
vector 198 MultiMecHost_delay.iUpf2.ppp[0].queue queueLength:vector ETV
attr autoWarmupFilter false
attr interpolationmode sample-hold
attr recordingmode vector
attr source "warmup(atomic(constant0(packetPushEnded) + count(packetPushStarted) - count(packetPulled) - count(packetRemoved) - count(packetDropped)))"
attr title "queue length"
attr unit pk
vector 199 MultiMecHost_delay.iUpf2.ppp[0].queue queueBitLength:vector ETV
attr autoWarmupFilter false
attr interpolationmode sample-hold
attr recordingmode vector
attr source "warmup(atomic(constant0(packetPushEnded) + sum(packetLength(packetPushStarted)) - sum(packetLength(packetPulled)) - sum(packetLength(packetRemoved)) - sum(packetLength(packetDropped))))"
attr title "queue bit length"
attr unit b
vector 200 MultiMecHost_delay.iUpf2.ppp[0].queue queueingTime:vector ETV
attr interpolationmode none
attr recordingmode vector
attr source queueingTime(packetPulled)
attr title "queueing times"
attr unit s
vector 201 MultiMecHost_delay.iUpf2.ppp[0].queue incomingPacketLengths:vector ETV
attr interpolationmode none
attr recordingmode vector
attr source packetLength(packetPushStarted)
attr title "incoming packet lengths"
attr unit b
vector 202 MultiMecHost_delay.iUpf2.ppp[0].queue incomingDataRate:vector ETV
attr interpolationmode linear
attr recordingmode vector
attr source throughput(packetPushStarted)
attr title "incoming datarate"
attr unit bps
vector 203 MultiMecHost_delay.iUpf2.ppp[0].queue outgoingPacketLengths:vector ETV
attr interpolationmode none
attr recordingmode vector
attr source packetLength(packetPulled)
attr title "outgoing packet lengths"
attr unit b
vector 204 MultiMecHost_delay.iUpf2.ppp[0].queue outgoingDataRate:vector ETV
attr interpolationmode linear
attr recordingmode vector
attr source throughput(packetPulled)
attr title "outgoing datarate"
attr unit bps
vector 205 MultiMecHost_delay.iUpf2.ppp[0].queue droppedPacketLengthsQueueOverflow:vector ETV
attr interpolationmode none
attr recordingmode vector
attr source packetLength(packetDropReasonIsQueueOverflow(packetDropped))
attr title "dropped packet lengths: queue overflow"
attr unit b
vector 206 MultiMecHost_delay.iUpf2.ppp[0].queue flowQueueingTime:vector ETV
attr interpolationmode none
attr recordingmode vector
attr source queueingTime(demuxFlow(packetPulled))
attr title "flow queueing times"
attr unit s
vector 207 MultiMecHost_delay.iUpf2.ppp[0].queue flowIncomingDataRate:vector ETV
attr interpolationmode linear
attr recordingmode vector
attr source throughput(flowPacketLength(demuxFlow(packetPushStarted)))
attr title "flow specific incoming data rate"
attr unit bps
vector 208 MultiMecHost_delay.iUpf2.ppp[0].queue flowOutgoingDataRate:vector ETV
attr interpolationmode linear
attr recordingmode vector
attr source throughput(flowPacketLength(demuxFlow(packetPulled)))
attr title "flow specific outgoing data rate"
attr unit bps
vector 209 MultiMecHost_delay.iUpf2.ppp[0].ppp transmissionState:vector ETV
attr interpolationmode sample-hold
attr recordingmode vector
attr source transmissionStateChanged
attr title "tx state"
vector 210 MultiMecHost_delay.iUpf2.ppp[0].ppp txPk:vector(packetBytes) ETV
attr interpolationmode none
attr recordingmode vector(packetBytes)
attr source packetSentToLower
attr title "packets transmitted, packetBytes"
vector 211 MultiMecHost_delay.iUpf2.ppp[0].ppp rxPkOk:vector(packetBytes) ETV
attr interpolationmode none
attr recordingmode vector(packetBytes)
attr source rxPkOk
attr title "packets received OK, packetBytes"
vector 212 MultiMecHost_delay.iUpf2.ppp[0].ppp packetDropIncorrectlyReceived:vector(packetBytes) ETV
attr interpolationmode none
attr recordingmode vector(packetBytes)
attr source packetDropReasonIsIncorrectlyReceived(packetDropped)
attr title "packet drop: incorrectly received, packetBytes"
vector 213 MultiMecHost_delay.iUpf2.ppp[0].ppp packetDropInterfaceDown:vector(packetBytes) ETV
attr interpolationmode none
attr recordingmode vector(packetBytes)
attr source packetDropReasonIsInterfaceDown(packetDropped)
attr title "packet drop: interface down, packetBytes"
vector 214 MultiMecHost_delay.iUpf2.ppp[0].ppp rcvdPkFromHl:vector(packetBytes) ETV
attr interpolationmode none
attr recordingmode vector(packetBytes)
attr source packetReceivedFromUpper
attr title "packets received from higher layer, packetBytes"
vector 215 MultiMecHost_delay.iUpf2.ppp[0].ppp passedUpPk:vector(packetBytes) ETV
attr interpolationmode none
attr recordingmode vector(packetBytes)
attr source packetSentToUpper
attr title "packets passed to higher layer, packetBytes"
vector 216 MultiMecHost_delay.iUpf2.ppp[0] packetDropInterfaceDown:vector(packetBytes) ETV
attr interpolationmode none
attr recordingmode vector(packetBytes)
attr source packetDropReasonIsInterfaceDown(packetDropped)
attr title "packet drops: interface down, packetBytes"
vector 217 MultiMecHost_delay.iUpf2.ppp[0] packetDropNoCarrier:vector(packetBytes) ETV
attr interpolationmode none
attr recordingmode vector(packetBytes)
attr source packetDropReasonIsNoCarrier(packetDropped)
attr title "packet drops: no carrier, packetBytes"
vector 218 MultiMecHost_delay.iUpf2.ppp[1].queue queueLength:vector ETV
attr autoWarmupFilter false
attr interpolationmode sample-hold
attr recordingmode vector
attr source "warmup(atomic(constant0(packetPushEnded) + count(packetPushStarted) - count(packetPulled) - count(packetRemoved) - count(packetDropped)))"
attr title "queue length"
attr unit pk
vector 219 MultiMecHost_delay.iUpf2.ppp[1].queue queueBitLength:vector ETV
attr autoWarmupFilter false
attr interpolationmode sample-hold
attr recordingmode vector
attr source "warmup(atomic(constant0(packetPushEnded) + sum(packetLength(packetPushStarted)) - sum(packetLength(packetPulled)) - sum(packetLength(packetRemoved)) - sum(packetLength(packetDropped))))"
attr title "queue bit length"
attr unit b
vector 220 MultiMecHost_delay.iUpf2.ppp[1].queue queueingTime:vector ETV
attr interpolationmode none
attr recordingmode vector
attr source queueingTime(packetPulled)
attr title "queueing times"
attr unit s
vector 221 MultiMecHost_delay.iUpf2.ppp[1].queue incomingPacketLengths:vector ETV
attr interpolationmode none
attr recordingmode vector
attr source packetLength(packetPushStarted)
attr title "incoming packet lengths"
attr unit b
vector 222 MultiMecHost_delay.iUpf2.ppp[1].queue incomingDataRate:vector ETV
attr interpolationmode linear
attr recordingmode vector
attr source throughput(packetPushStarted)
attr title "incoming datarate"
attr unit bps
vector 223 MultiMecHost_delay.iUpf2.ppp[1].queue outgoingPacketLengths:vector ETV
attr interpolationmode none
attr recordingmode vector
attr source packetLength(packetPulled)
attr title "outgoing packet lengths"
attr unit b
vector 224 MultiMecHost_delay.iUpf2.ppp[1].queue outgoingDataRate:vector ETV
attr interpolationmode linear
attr recordingmode vector
attr source throughput(packetPulled)
attr title "outgoing datarate"
attr unit bps
vector 225 MultiMecHost_delay.iUpf2.ppp[1].queue droppedPacketLengthsQueueOverflow:vector ETV
attr interpolationmode none
attr recordingmode vector
attr source packetLength(packetDropReasonIsQueueOverflow(packetDropped))
attr title "dropped packet lengths: queue overflow"
attr unit b
vector 226 MultiMecHost_delay.iUpf2.ppp[1].queue flowQueueingTime:vector ETV
attr interpolationmode none
attr recordingmode vector
attr source queueingTime(demuxFlow(packetPulled))
attr title "flow queueing times"
attr unit s
vector 227 MultiMecHost_delay.iUpf2.ppp[1].queue flowIncomingDataRate:vector ETV
attr interpolationmode linear
attr recordingmode vector
attr source throughput(flowPacketLength(demuxFlow(packetPushStarted)))
attr title "flow specific incoming data rate"
attr unit bps
vector 228 MultiMecHost_delay.iUpf2.ppp[1].queue flowOutgoingDataRate:vector ETV
attr interpolationmode linear
attr recordingmode vector
attr source throughput(flowPacketLength(demuxFlow(packetPulled)))
attr title "flow specific outgoing data rate"
attr unit bps
vector 229 MultiMecHost_delay.iUpf2.ppp[1].ppp transmissionState:vector ETV
attr interpolationmode sample-hold
attr recordingmode vector
attr source transmissionStateChanged
attr title "tx state"
vector 230 MultiMecHost_delay.iUpf2.ppp[1].ppp txPk:vector(packetBytes) ETV
attr interpolationmode none
attr recordingmode vector(packetBytes)
attr source packetSentToLower
attr title "packets transmitted, packetBytes"
vector 231 MultiMecHost_delay.iUpf2.ppp[1].ppp rxPkOk:vector(packetBytes) ETV
attr interpolationmode none
attr recordingmode vector(packetBytes)
attr source rxPkOk
attr title "packets received OK, packetBytes"
vector 232 MultiMecHost_delay.iUpf2.ppp[1].ppp packetDropIncorrectlyReceived:vector(packetBytes) ETV
attr interpolationmode none
attr recordingmode vector(packetBytes)
attr source packetDropReasonIsIncorrectlyReceived(packetDropped)
attr title "packet drop: incorrectly received, packetBytes"
vector 233 MultiMecHost_delay.iUpf2.ppp[1].ppp packetDropInterfaceDown:vector(packetBytes) ETV
attr interpolationmode none
attr recordingmode vector(packetBytes)
attr source packetDropReasonIsInterfaceDown(packetDropped)
attr title "packet drop: interface down, packetBytes"
vector 234 MultiMecHost_delay.iUpf2.ppp[1].ppp rcvdPkFromHl:vector(packetBytes) ETV
attr interpolationmode none
attr recordingmode vector(packetBytes)
attr source packetReceivedFromUpper
attr title "packets received from higher layer, packetBytes"
vector 235 MultiMecHost_delay.iUpf2.ppp[1].ppp passedUpPk:vector(packetBytes) ETV
attr interpolationmode none
attr recordingmode vector(packetBytes)
attr source packetSentToUpper
attr title "packets passed to higher layer, packetBytes"
vector 236 MultiMecHost_delay.iUpf2.ppp[1] packetDropInterfaceDown:vector(packetBytes) ETV
attr interpolationmode none
attr recordingmode vector(packetBytes)
attr source packetDropReasonIsInterfaceDown(packetDropped)
attr title "packet drops: interface down, packetBytes"
vector 237 MultiMecHost_delay.iUpf2.ppp[1] packetDropNoCarrier:vector(packetBytes) ETV
attr interpolationmode none
attr recordingmode vector(packetBytes)
attr source packetDropReasonIsNoCarrier(packetDropped)
attr title "packet drops: no carrier, packetBytes"
vector 238 MultiMecHost_delay.iUpf2.ppp[2].queue queueLength:vector ETV
attr autoWarmupFilter false
attr interpolationmode sample-hold
attr recordingmode vector
attr source "warmup(atomic(constant0(packetPushEnded) + count(packetPushStarted) - count(packetPulled) - count(packetRemoved) - count(packetDropped)))"
attr title "queue length"
attr unit pk
vector 239 MultiMecHost_delay.iUpf2.ppp[2].queue queueBitLength:vector ETV
attr autoWarmupFilter false
attr interpolationmode sample-hold
attr recordingmode vector
attr source "warmup(atomic(constant0(packetPushEnded) + sum(packetLength(packetPushStarted)) - sum(packetLength(packetPulled)) - sum(packetLength(packetRemoved)) - sum(packetLength(packetDropped))))"
attr title "queue bit length"
attr unit b
vector 240 MultiMecHost_delay.iUpf2.ppp[2].queue queueingTime:vector ETV
attr interpolationmode none
attr recordingmode vector
attr source queueingTime(packetPulled)
attr title "queueing times"
attr unit s
vector 241 MultiMecHost_delay.iUpf2.ppp[2].queue incomingPacketLengths:vector ETV
attr interpolationmode none
attr recordingmode vector
attr source packetLength(packetPushStarted)
attr title "incoming packet lengths"
attr unit b
vector 242 MultiMecHost_delay.iUpf2.ppp[2].queue incomingDataRate:vector ETV
attr interpolationmode linear
attr recordingmode vector
attr source throughput(packetPushStarted)
attr title "incoming datarate"
attr unit bps
vector 243 MultiMecHost_delay.iUpf2.ppp[2].queue outgoingPacketLengths:vector ETV
attr interpolationmode none
attr recordingmode vector
attr source packetLength(packetPulled)
attr title "outgoing packet lengths"
attr unit b
vector 244 MultiMecHost_delay.iUpf2.ppp[2].queue outgoingDataRate:vector ETV
attr interpolationmode linear
attr recordingmode vector
attr source throughput(packetPulled)
attr title "outgoing datarate"
attr unit bps
vector 245 MultiMecHost_delay.iUpf2.ppp[2].queue droppedPacketLengthsQueueOverflow:vector ETV
attr interpolationmode none
attr recordingmode vector
attr source packetLength(packetDropReasonIsQueueOverflow(packetDropped))
attr title "dropped packet lengths: queue overflow"
attr unit b
vector 246 MultiMecHost_delay.iUpf2.ppp[2].queue flowQueueingTime:vector ETV
attr interpolationmode none
attr recordingmode vector
attr source queueingTime(demuxFlow(packetPulled))
attr title "flow queueing times"
attr unit s
vector 247 MultiMecHost_delay.iUpf2.ppp[2].queue flowIncomingDataRate:vector ETV
attr interpolationmode linear
attr recordingmode vector
attr source throughput(flowPacketLength(demuxFlow(packetPushStarted)))
attr title "flow specific incoming data rate"
attr unit bps
vector 248 MultiMecHost_delay.iUpf2.ppp[2].queue flowOutgoingDataRate:vector ETV
attr interpolationmode linear
attr recordingmode vector
attr source throughput(flowPacketLength(demuxFlow(packetPulled)))
attr title "flow specific outgoing data rate"
attr unit bps
vector 249 MultiMecHost_delay.iUpf2.ppp[2].ppp transmissionState:vector ETV
attr interpolationmode sample-hold
attr recordingmode vector
attr source transmissionStateChanged
attr title "tx state"
vector 250 MultiMecHost_delay.iUpf2.ppp[2].ppp txPk:vector(packetBytes) ETV
attr interpolationmode none
attr recordingmode vector(packetBytes)
attr source packetSentToLower
attr title "packets transmitted, packetBytes"
vector 251 MultiMecHost_delay.iUpf2.ppp[2].ppp rxPkOk:vector(packetBytes) ETV
attr interpolationmode none
attr recordingmode vector(packetBytes)
attr source rxPkOk
attr title "packets received OK, packetBytes"
vector 252 MultiMecHost_delay.iUpf2.ppp[2].ppp packetDropIncorrectlyReceived:vector(packetBytes) ETV
attr interpolationmode none
attr recordingmode vector(packetBytes)
attr source packetDropReasonIsIncorrectlyReceived(packetDropped)
attr title "packet drop: incorrectly received, packetBytes"
vector 253 MultiMecHost_delay.iUpf2.ppp[2].ppp packetDropInterfaceDown:vector(packetBytes) ETV
attr interpolationmode none
attr recordingmode vector(packetBytes)
attr source packetDropReasonIsInterfaceDown(packetDropped)
attr title "packet drop: interface down, packetBytes"
vector 254 MultiMecHost_delay.iUpf2.ppp[2].ppp rcvdPkFromHl:vector(packetBytes) ETV
attr interpolationmode none
attr recordingmode vector(packetBytes)
attr source packetReceivedFromUpper
attr title "packets received from higher layer, packetBytes"
vector 255 MultiMecHost_delay.iUpf2.ppp[2].ppp passedUpPk:vector(packetBytes) ETV
attr interpolationmode none
attr recordingmode vector(packetBytes)
attr source packetSentToUpper
attr title "packets passed to higher layer, packetBytes"
vector 256 MultiMecHost_delay.iUpf2.ppp[2] packetDropInterfaceDown:vector(packetBytes) ETV
attr interpolationmode none
attr recordingmode vector(packetBytes)
attr source packetDropReasonIsInterfaceDown(packetDropped)
attr title "packet drops: interface down, packetBytes"
vector 257 MultiMecHost_delay.iUpf2.ppp[2] packetDropNoCarrier:vector(packetBytes) ETV
attr interpolationmode none
attr recordingmode vector(packetBytes)
attr source packetDropReasonIsNoCarrier(packetDropped)
attr title "packet drops: no carrier, packetBytes"
vector 258 MultiMecHost_delay.iUpf2.ppp[3].queue queueLength:vector ETV
attr autoWarmupFilter false
attr interpolationmode sample-hold
attr recordingmode vector
attr source "warmup(atomic(constant0(packetPushEnded) + count(packetPushStarted) - count(packetPulled) - count(packetRemoved) - count(packetDropped)))"
attr title "queue length"
attr unit pk
vector 259 MultiMecHost_delay.iUpf2.ppp[3].queue queueBitLength:vector ETV
attr autoWarmupFilter false
attr interpolationmode sample-hold
attr recordingmode vector
attr source "warmup(atomic(constant0(packetPushEnded) + sum(packetLength(packetPushStarted)) - sum(packetLength(packetPulled)) - sum(packetLength(packetRemoved)) - sum(packetLength(packetDropped))))"
attr title "queue bit length"
attr unit b
vector 260 MultiMecHost_delay.iUpf2.ppp[3].queue queueingTime:vector ETV
attr interpolationmode none
attr recordingmode vector
attr source queueingTime(packetPulled)
attr title "queueing times"
attr unit s
vector 261 MultiMecHost_delay.iUpf2.ppp[3].queue incomingPacketLengths:vector ETV
attr interpolationmode none
attr recordingmode vector
attr source packetLength(packetPushStarted)
attr title "incoming packet lengths"
attr unit b
vector 262 MultiMecHost_delay.iUpf2.ppp[3].queue incomingDataRate:vector ETV
attr interpolationmode linear
attr recordingmode vector
attr source throughput(packetPushStarted)
attr title "incoming datarate"
attr unit bps
vector 263 MultiMecHost_delay.iUpf2.ppp[3].queue outgoingPacketLengths:vector ETV
attr interpolationmode none
attr recordingmode vector
attr source packetLength(packetPulled)
attr title "outgoing packet lengths"
attr unit b
vector 264 MultiMecHost_delay.iUpf2.ppp[3].queue outgoingDataRate:vector ETV
attr interpolationmode linear
attr recordingmode vector
attr source throughput(packetPulled)
attr title "outgoing datarate"
attr unit bps
vector 265 MultiMecHost_delay.iUpf2.ppp[3].queue droppedPacketLengthsQueueOverflow:vector ETV
attr interpolationmode none
attr recordingmode vector
attr source packetLength(packetDropReasonIsQueueOverflow(packetDropped))
attr title "dropped packet lengths: queue overflow"
attr unit b
vector 266 MultiMecHost_delay.iUpf2.ppp[3].queue flowQueueingTime:vector ETV
attr interpolationmode none
attr recordingmode vector
attr source queueingTime(demuxFlow(packetPulled))
attr title "flow queueing times"
attr unit s
vector 267 MultiMecHost_delay.iUpf2.ppp[3].queue flowIncomingDataRate:vector ETV
attr interpolationmode linear
attr recordingmode vector
attr source throughput(flowPacketLength(demuxFlow(packetPushStarted)))
attr title "flow specific incoming data rate"
attr unit bps
vector 268 MultiMecHost_delay.iUpf2.ppp[3].queue flowOutgoingDataRate:vector ETV
attr interpolationmode linear
attr recordingmode vector
attr source throughput(flowPacketLength(demuxFlow(packetPulled)))
attr title "flow specific outgoing data rate"
attr unit bps
vector 269 MultiMecHost_delay.iUpf2.ppp[3].ppp transmissionState:vector ETV
attr interpolationmode sample-hold
attr recordingmode vector
attr source transmissionStateChanged
attr title "tx state"
vector 270 MultiMecHost_delay.iUpf2.ppp[3].ppp txPk:vector(packetBytes) ETV
attr interpolationmode none
attr recordingmode vector(packetBytes)
attr source packetSentToLower
attr title "packets transmitted, packetBytes"
vector 271 MultiMecHost_delay.iUpf2.ppp[3].ppp rxPkOk:vector(packetBytes) ETV
attr interpolationmode none
attr recordingmode vector(packetBytes)
attr source rxPkOk
attr title "packets received OK, packetBytes"
vector 272 MultiMecHost_delay.iUpf2.ppp[3].ppp packetDropIncorrectlyReceived:vector(packetBytes) ETV
attr interpolationmode none
attr recordingmode vector(packetBytes)
attr source packetDropReasonIsIncorrectlyReceived(packetDropped)
attr title "packet drop: incorrectly received, packetBytes"
vector 273 MultiMecHost_delay.iUpf2.ppp[3].ppp packetDropInterfaceDown:vector(packetBytes) ETV
attr interpolationmode none
attr recordingmode vector(packetBytes)
attr source packetDropReasonIsInterfaceDown(packetDropped)
attr title "packet drop: interface down, packetBytes"
vector 274 MultiMecHost_delay.iUpf2.ppp[3].ppp rcvdPkFromHl:vector(packetBytes) ETV
attr interpolationmode none
attr recordingmode vector(packetBytes)
attr source packetReceivedFromUpper
attr title "packets received from higher layer, packetBytes"
vector 275 MultiMecHost_delay.iUpf2.ppp[3].ppp passedUpPk:vector(packetBytes) ETV
attr interpolationmode none
attr recordingmode vector(packetBytes)
attr source packetSentToUpper
attr title "packets passed to higher layer, packetBytes"
vector 276 MultiMecHost_delay.iUpf2.ppp[3] packetDropInterfaceDown:vector(packetBytes) ETV
attr interpolationmode none
attr recordingmode vector(packetBytes)
attr source packetDropReasonIsInterfaceDown(packetDropped)
attr title "packet drops: interface down, packetBytes"
vector 277 MultiMecHost_delay.iUpf2.ppp[3] packetDropNoCarrier:vector(packetBytes) ETV
attr interpolationmode none
attr recordingmode vector(packetBytes)
attr source packetDropReasonIsNoCarrier(packetDropped)
attr title "packet drops: no carrier, packetBytes"
vector 278 MultiMecHost_delay.iUpf2.ipv4.ip packetDropAddressResolutionFailed:vector(packetBytes) ETV
attr interpolationmode none
attr recordingmode vector(packetBytes)
attr source packetDropReasonIsAddressResolutionFailed(packetDropped)
attr title "packet drop: address resolution failed, packetBytes"
vector 279 MultiMecHost_delay.iUpf2.ipv4.ip packetDropHopLimitReached:vector(packetBytes) ETV
attr interpolationmode none
attr recordingmode vector(packetBytes)
attr source packetDropReasonIsHopLimitReached(packetDropped)
attr title "packet drop: hop limit reached, packetBytes"
vector 280 MultiMecHost_delay.iUpf2.ipv4.ip packetDropForwardingDisabled:vector(packetBytes) ETV
attr interpolationmode none
attr recordingmode vector(packetBytes)
attr source packetDropReasonIsForwardingDisabled(packetDropped)
attr title "packet drop: forwarding disabled, packetBytes"
vector 281 MultiMecHost_delay.iUpf2.ipv4.ip packetDropNoInterfaceFound:vector(packetBytes) ETV
attr interpolationmode none
attr recordingmode vector(packetBytes)
attr source packetDropReasonIsNoInterfaceFound(packetDropped)
attr title "packet drop: no interface found, packetBytes"
vector 282 MultiMecHost_delay.iUpf2.ipv4.ip packetDropNoRouteFound:vector(packetBytes) ETV
attr interpolationmode none
attr recordingmode vector(packetBytes)
attr source packetDropReasonIsNoRouteFound(packetDropped)
attr title "packet drop: no route found, packetBytes"
vector 283 MultiMecHost_delay.iUpf2.ipv4.ip packetDropUndefined:vector(packetBytes) ETV
attr interpolationmode none
attr recordingmode vector(packetBytes)
attr source packetDropReasonIsUndefined(packetDropped)
attr title "packet drop: undefined, packetBytes"
vector 284 MultiMecHost_delay.iUpf2.ipv4.arp arpRequestSent:vector(packetBytes) ETV
attr recordingmode vector(packetBytes)
attr source arpRequestSent
attr title "ARP request sent, packetBytes"
vector 285 MultiMecHost_delay.iUpf2.ipv4.arp arpReplySent:vector(packetBytes) ETV
attr recordingmode vector(packetBytes)
attr source arpReplySent
attr title "ARP replies sent, packetBytes"
vector 286 MultiMecHost_delay.iUpf2.pppIf.queue queueLength:vector ETV
attr autoWarmupFilter false
attr interpolationmode sample-hold
attr recordingmode vector
[...]
attr interpolationmode sample-hold
attr recordingmode vector
vector 1476 MultiMecHost_delay.mecHost1.virtualisationInfrastructure.tcp.conn-58 rto:vector ETV
attr interpolationmode sample-hold
attr recordingmode vector
vector 1477 MultiMecHost_delay.mecHost1.virtualisationInfrastructure.tcp.conn-58 numRtos:vector ETV
attr interpolationmode sample-hold
attr recordingmode vector
vector 1478 MultiMecHost_delay.mecHost1.virtualisationInfrastructure.tcp.conn-58 load:vector ETV
attr interpolationmode sample-hold
attr recordingmode vector
vector 1479 MultiMecHost_delay.mecHost1.virtualisationInfrastructure.tcp.conn-58 calcLoad:vector ETV
attr interpolationmode sample-hold
attr recordingmode vector
vector 1480 MultiMecHost_delay.mecHost1.virtualisationInfrastructure.tcp.conn-58 markingProb:vector ETV
attr interpolationmode sample-hold
attr recordingmode vector
vector 1481 MultiMecHost_delay.mecHost1.virtualisationInfrastructure.tcp.conn-60 state:vector ETV
attr interpolationmode sample-hold
attr recordingmode vector
vector 1482 MultiMecHost_delay.mecHost1.virtualisationInfrastructure.tcp.conn-60 sndWnd:vector ETV
attr interpolationmode sample-hold
attr recordingmode vector
vector 1483 MultiMecHost_delay.mecHost1.virtualisationInfrastructure.tcp.conn-60 rcvWnd:vector ETV
attr interpolationmode sample-hold
attr recordingmode vector
vector 1484 MultiMecHost_delay.mecHost1.virtualisationInfrastructure.tcp.conn-60 rcvAdv:vector ETV
attr interpolationmode sample-hold
attr recordingmode vector
vector 1485 MultiMecHost_delay.mecHost1.virtualisationInfrastructure.tcp.conn-60 sndNxt:vector ETV
attr interpolationmode sample-hold
attr recordingmode vector
vector 1486 MultiMecHost_delay.mecHost1.virtualisationInfrastructure.tcp.conn-60 sndAck:vector ETV
attr interpolationmode sample-hold
attr recordingmode vector
vector 1487 MultiMecHost_delay.mecHost1.virtualisationInfrastructure.tcp.conn-60 rcvSeq:vector ETV
attr interpolationmode sample-hold
attr recordingmode vector
vector 1488 MultiMecHost_delay.mecHost1.virtualisationInfrastructure.tcp.conn-60 rcvAck:vector ETV
attr interpolationmode sample-hold
attr recordingmode vector
vector 1489 MultiMecHost_delay.mecHost1.virtualisationInfrastructure.tcp.conn-60 unacked:vector ETV
attr interpolationmode sample-hold
attr recordingmode vector
vector 1490 MultiMecHost_delay.mecHost1.virtualisationInfrastructure.tcp.conn-60 dupAcks:vector ETV
attr interpolationmode sample-hold
attr recordingmode vector
vector 1491 MultiMecHost_delay.mecHost1.virtualisationInfrastructure.tcp.conn-60 pipe:vector ETV
attr interpolationmode sample-hold
attr recordingmode vector
vector 1492 MultiMecHost_delay.mecHost1.virtualisationInfrastructure.tcp.conn-60 sndSacks:vector ETV
attr interpolationmode sample-hold
attr recordingmode vector
vector 1493 MultiMecHost_delay.mecHost1.virtualisationInfrastructure.tcp.conn-60 rcvSacks:vector ETV
attr interpolationmode sample-hold
attr recordingmode vector
vector 1494 MultiMecHost_delay.mecHost1.virtualisationInfrastructure.tcp.conn-60 rcvOooSeg:vector ETV
attr interpolationmode sample-hold
attr recordingmode vector
vector 1495 MultiMecHost_delay.mecHost1.virtualisationInfrastructure.tcp.conn-60 rcvNASeg:vector ETV
attr interpolationmode sample-hold
attr recordingmode vector
vector 1496 MultiMecHost_delay.mecHost1.virtualisationInfrastructure.tcp.conn-60 sackedBytes:vector ETV
attr interpolationmode sample-hold
attr recordingmode vector
vector 1497 MultiMecHost_delay.mecHost1.virtualisationInfrastructure.tcp.conn-60 tcpRcvQueueBytes:vector ETV
attr interpolationmode sample-hold
attr recordingmode vector
vector 1498 MultiMecHost_delay.mecHost1.virtualisationInfrastructure.tcp.conn-60 tcpRcvQueueDrops:vector ETV
attr interpolationmode sample-hold
attr recordingmode vector
vector 1499 MultiMecHost_delay.mecHost1.virtualisationInfrastructure.tcp.conn-60 tcpRcvPayloadBytes:vector ETV
attr interpolationmode sample-hold
attr recordingmode vector
vector 1500 MultiMecHost_delay.mecHost1.virtualisationInfrastructure.tcp.conn-60 cwnd:vector ETV
attr interpolationmode sample-hold
attr recordingmode vector
vector 1501 MultiMecHost_delay.mecHost1.virtualisationInfrastructure.tcp.conn-60 ssthresh:vector ETV
attr interpolationmode sample-hold
attr recordingmode vector
vector 1502 MultiMecHost_delay.mecHost1.virtualisationInfrastructure.tcp.conn-60 rtt:vector ETV
attr interpolationmode sample-hold
attr recordingmode vector
vector 1503 MultiMecHost_delay.mecHost1.virtualisationInfrastructure.tcp.conn-60 srtt:vector ETV
attr interpolationmode sample-hold
attr recordingmode vector
vector 1504 MultiMecHost_delay.mecHost1.virtualisationInfrastructure.tcp.conn-60 rttvar:vector ETV
attr interpolationmode sample-hold
attr recordingmode vector
vector 1505 MultiMecHost_delay.mecHost1.virtualisationInfrastructure.tcp.conn-60 rto:vector ETV
attr interpolationmode sample-hold
attr recordingmode vector
vector 1506 MultiMecHost_delay.mecHost1.virtualisationInfrastructure.tcp.conn-60 numRtos:vector ETV
attr interpolationmode sample-hold
attr recordingmode vector
vector 1507 MultiMecHost_delay.mecHost1.virtualisationInfrastructure.tcp.conn-60 load:vector ETV
attr interpolationmode sample-hold
attr recordingmode vector
vector 1508 MultiMecHost_delay.mecHost1.virtualisationInfrastructure.tcp.conn-60 calcLoad:vector ETV
attr interpolationmode sample-hold
attr recordingmode vector
vector 1509 MultiMecHost_delay.mecHost1.virtualisationInfrastructure.tcp.conn-60 markingProb:vector ETV
attr interpolationmode sample-hold
attr recordingmode vector
vector 1510 MultiMecHost_delay.mecHost1.virtualisationInfrastructure.tcp.conn-61 state:vector ETV
attr interpolationmode sample-hold
attr recordingmode vector
vector 1511 MultiMecHost_delay.mecHost1.virtualisationInfrastructure.tcp.conn-61 sndWnd:vector ETV
attr interpolationmode sample-hold
attr recordingmode vector
vector 1512 MultiMecHost_delay.mecHost1.virtualisationInfrastructure.tcp.conn-61 rcvWnd:vector ETV
attr interpolationmode sample-hold
attr recordingmode vector
vector 1513 MultiMecHost_delay.mecHost1.virtualisationInfrastructure.tcp.conn-61 rcvAdv:vector ETV
attr interpolationmode sample-hold
attr recordingmode vector
vector 1514 MultiMecHost_delay.mecHost1.virtualisationInfrastructure.tcp.conn-61 sndNxt:vector ETV
attr interpolationmode sample-hold
attr recordingmode vector
vector 1515 MultiMecHost_delay.mecHost1.virtualisationInfrastructure.tcp.conn-61 sndAck:vector ETV
attr interpolationmode sample-hold
attr recordingmode vector
vector 1516 MultiMecHost_delay.mecHost1.virtualisationInfrastructure.tcp.conn-61 rcvSeq:vector ETV
attr interpolationmode sample-hold
attr recordingmode vector
vector 1517 MultiMecHost_delay.mecHost1.virtualisationInfrastructure.tcp.conn-61 rcvAck:vector ETV
attr interpolationmode sample-hold
attr recordingmode vector
vector 1518 MultiMecHost_delay.mecHost1.virtualisationInfrastructure.tcp.conn-61 unacked:vector ETV
attr interpolationmode sample-hold
attr recordingmode vector
vector 1519 MultiMecHost_delay.mecHost1.virtualisationInfrastructure.tcp.conn-61 dupAcks:vector ETV
attr interpolationmode sample-hold
attr recordingmode vector
vector 1520 MultiMecHost_delay.mecHost1.virtualisationInfrastructure.tcp.conn-61 pipe:vector ETV
attr interpolationmode sample-hold
attr recordingmode vector
vector 1521 MultiMecHost_delay.mecHost1.virtualisationInfrastructure.tcp.conn-61 sndSacks:vector ETV
attr interpolationmode sample-hold
attr recordingmode vector
vector 1522 MultiMecHost_delay.mecHost1.virtualisationInfrastructure.tcp.conn-61 rcvSacks:vector ETV
attr interpolationmode sample-hold
attr recordingmode vector
vector 1523 MultiMecHost_delay.mecHost1.virtualisationInfrastructure.tcp.conn-61 rcvOooSeg:vector ETV
attr interpolationmode sample-hold
attr recordingmode vector
vector 1524 MultiMecHost_delay.mecHost1.virtualisationInfrastructure.tcp.conn-61 rcvNASeg:vector ETV
attr interpolationmode sample-hold
attr recordingmode vector
vector 1525 MultiMecHost_delay.mecHost1.virtualisationInfrastructure.tcp.conn-61 sackedBytes:vector ETV
attr interpolationmode sample-hold
attr recordingmode vector
vector 1526 MultiMecHost_delay.mecHost1.virtualisationInfrastructure.tcp.conn-61 tcpRcvQueueBytes:vector ETV
attr interpolationmode sample-hold
attr recordingmode vector
vector 1527 MultiMecHost_delay.mecHost1.virtualisationInfrastructure.tcp.conn-61 tcpRcvQueueDrops:vector ETV
attr interpolationmode sample-hold
attr recordingmode vector
vector 1528 MultiMecHost_delay.mecHost1.virtualisationInfrastructure.tcp.conn-61 tcpRcvPayloadBytes:vector ETV
attr interpolationmode sample-hold
attr recordingmode vector
vector 1529 MultiMecHost_delay.mecHost1.virtualisationInfrastructure.tcp.conn-61 cwnd:vector ETV
attr interpolationmode sample-hold
attr recordingmode vector
vector 1530 MultiMecHost_delay.mecHost1.virtualisationInfrastructure.tcp.conn-61 ssthresh:vector ETV
attr interpolationmode sample-hold
attr recordingmode vector
vector 1531 MultiMecHost_delay.mecHost1.virtualisationInfrastructure.tcp.conn-61 rtt:vector ETV
attr interpolationmode sample-hold
attr recordingmode vector
vector 1532 MultiMecHost_delay.mecHost1.virtualisationInfrastructure.tcp.conn-61 srtt:vector ETV
attr interpolationmode sample-hold
attr recordingmode vector
vector 1533 MultiMecHost_delay.mecHost1.virtualisationInfrastructure.tcp.conn-61 rttvar:vector ETV
attr interpolationmode sample-hold
attr recordingmode vector
vector 1534 MultiMecHost_delay.mecHost1.virtualisationInfrastructure.tcp.conn-61 rto:vector ETV
attr interpolationmode sample-hold
attr recordingmode vector
vector 1535 MultiMecHost_delay.mecHost1.virtualisationInfrastructure.tcp.conn-61 numRtos:vector ETV
attr interpolationmode sample-hold
attr recordingmode vector
vector 1536 MultiMecHost_delay.mecHost1.virtualisationInfrastructure.tcp.conn-61 load:vector ETV
attr interpolationmode sample-hold
attr recordingmode vector
vector 1537 MultiMecHost_delay.mecHost1.virtualisationInfrastructure.tcp.conn-61 calcLoad:vector ETV
attr interpolationmode sample-hold
attr recordingmode vector
vector 1538 MultiMecHost_delay.mecHost1.virtualisationInfrastructure.tcp.conn-61 markingProb:vector ETV
attr interpolationmode sample-hold
attr recordingmode vector
vector 1539 MultiMecHost_delay.mecHost1.virtualisationInfrastructure.tcp.conn-62 state:vector ETV
attr interpolationmode sample-hold
attr recordingmode vector
vector 1540 MultiMecHost_delay.mecHost1.virtualisationInfrastructure.tcp.conn-62 sndWnd:vector ETV
attr interpolationmode sample-hold
attr recordingmode vector
vector 1541 MultiMecHost_delay.mecHost1.virtualisationInfrastructure.tcp.conn-62 rcvWnd:vector ETV
attr interpolationmode sample-hold
attr recordingmode vector
vector 1542 MultiMecHost_delay.mecHost1.virtualisationInfrastructure.tcp.conn-62 rcvAdv:vector ETV
attr interpolationmode sample-hold
attr recordingmode vector
vector 1543 MultiMecHost_delay.mecHost1.virtualisationInfrastructure.tcp.conn-62 sndNxt:vector ETV
attr interpolationmode sample-hold
attr recordingmode vector
vector 1544 MultiMecHost_delay.mecHost1.virtualisationInfrastructure.tcp.conn-62 sndAck:vector ETV
attr interpolationmode sample-hold
attr recordingmode vector
vector 1545 MultiMecHost_delay.mecHost1.virtualisationInfrastructure.tcp.conn-62 rcvSeq:vector ETV
attr interpolationmode sample-hold
attr recordingmode vector
vector 1546 MultiMecHost_delay.mecHost1.virtualisationInfrastructure.tcp.conn-62 rcvAck:vector ETV
attr interpolationmode sample-hold
attr recordingmode vector
vector 1547 MultiMecHost_delay.mecHost1.virtualisationInfrastructure.tcp.conn-62 unacked:vector ETV
attr interpolationmode sample-hold
attr recordingmode vector
vector 1548 MultiMecHost_delay.mecHost1.virtualisationInfrastructure.tcp.conn-62 dupAcks:vector ETV
attr interpolationmode sample-hold
attr recordingmode vector
vector 1549 MultiMecHost_delay.mecHost1.virtualisationInfrastructure.tcp.conn-62 pipe:vector ETV
attr interpolationmode sample-hold
attr recordingmode vector
vector 1550 MultiMecHost_delay.mecHost1.virtualisationInfrastructure.tcp.conn-62 sndSacks:vector ETV
attr interpolationmode sample-hold
attr recordingmode vector
vector 1551 MultiMecHost_delay.mecHost1.virtualisationInfrastructure.tcp.conn-62 rcvSacks:vector ETV
attr interpolationmode sample-hold
attr recordingmode vector
vector 1552 MultiMecHost_delay.mecHost1.virtualisationInfrastructure.tcp.conn-62 rcvOooSeg:vector ETV
attr interpolationmode sample-hold
attr recordingmode vector
vector 1553 MultiMecHost_delay.mecHost1.virtualisationInfrastructure.tcp.conn-62 rcvNASeg:vector ETV
attr interpolationmode sample-hold
attr recordingmode vector
vector 1554 MultiMecHost_delay.mecHost1.virtualisationInfrastructure.tcp.conn-62 sackedBytes:vector ETV
attr interpolationmode sample-hold
attr recordingmode vector
vector 1555 MultiMecHost_delay.mecHost1.virtualisationInfrastructure.tcp.conn-62 tcpRcvQueueBytes:vector ETV
attr interpolationmode sample-hold
attr recordingmode vector
vector 1556 MultiMecHost_delay.mecHost1.virtualisationInfrastructure.tcp.conn-62 tcpRcvQueueDrops:vector ETV
attr interpolationmode sample-hold
attr recordingmode vector
vector 1557 MultiMecHost_delay.mecHost1.virtualisationInfrastructure.tcp.conn-62 tcpRcvPayloadBytes:vector ETV
attr interpolationmode sample-hold
attr recordingmode vector
vector 1558 MultiMecHost_delay.mecHost1.virtualisationInfrastructure.tcp.conn-62 cwnd:vector ETV
attr interpolationmode sample-hold
attr recordingmode vector
vector 1559 MultiMecHost_delay.mecHost1.virtualisationInfrastructure.tcp.conn-62 ssthresh:vector ETV
attr interpolationmode sample-hold
attr recordingmode vector
vector 1560 MultiMecHost_delay.mecHost1.virtualisationInfrastructure.tcp.conn-62 rtt:vector ETV
attr interpolationmode sample-hold
attr recordingmode vector
vector 1561 MultiMecHost_delay.mecHost1.virtualisationInfrastructure.tcp.conn-62 srtt:vector ETV
attr interpolationmode sample-hold
attr recordingmode vector
vector 1562 MultiMecHost_delay.mecHost1.virtualisationInfrastructure.tcp.conn-62 rttvar:vector ETV
attr interpolationmode sample-hold
attr recordingmode vector
vector 1563 MultiMecHost_delay.mecHost1.virtualisationInfrastructure.tcp.conn-62 rto:vector ETV
attr interpolationmode sample-hold
attr recordingmode vector
vector 1564 MultiMecHost_delay.mecHost1.virtualisationInfrastructure.tcp.conn-62 numRtos:vector ETV
attr interpolationmode sample-hold
attr recordingmode vector
vector 1565 MultiMecHost_delay.mecHost1.virtualisationInfrastructure.tcp.conn-62 load:vector ETV
attr interpolationmode sample-hold
attr recordingmode vector
vector 1566 MultiMecHost_delay.mecHost1.virtualisationInfrastructure.tcp.conn-62 calcLoad:vector ETV
attr interpolationmode sample-hold
attr recordingmode vector
vector 1567 MultiMecHost_delay.mecHost1.virtualisationInfrastructure.tcp.conn-62 markingProb:vector ETV
attr interpolationmode sample-hold
attr recordingmode vector
vector 1568 MultiMecHost_delay.mecHost1.virtualisationInfrastructure.tcp.conn-63 state:vector ETV
attr interpolationmode sample-hold
attr recordingmode vector
vector 1569 MultiMecHost_delay.mecHost1.virtualisationInfrastructure.tcp.conn-63 sndWnd:vector ETV
attr interpolationmode sample-hold
attr recordingmode vector
vector 1570 MultiMecHost_delay.mecHost1.virtualisationInfrastructure.tcp.conn-63 rcvWnd:vector ETV
attr interpolationmode sample-hold
attr recordingmode vector
vector 1571 MultiMecHost_delay.mecHost1.virtualisationInfrastructure.tcp.conn-63 rcvAdv:vector ETV
attr interpolationmode sample-hold
attr recordingmode vector
vector 1572 MultiMecHost_delay.mecHost1.virtualisationInfrastructure.tcp.conn-63 sndNxt:vector ETV
attr interpolationmode sample-hold
attr recordingmode vector
vector 1573 MultiMecHost_delay.mecHost1.virtualisationInfrastructure.tcp.conn-63 sndAck:vector ETV
attr interpolationmode sample-hold
attr recordingmode vector
vector 1574 MultiMecHost_delay.mecHost1.virtualisationInfrastructure.tcp.conn-63 rcvSeq:vector ETV
attr interpolationmode sample-hold
attr recordingmode vector
vector 1575 MultiMecHost_delay.mecHost1.virtualisationInfrastructure.tcp.conn-63 rcvAck:vector ETV
attr interpolationmode sample-hold
attr recordingmode vector
vector 1576 MultiMecHost_delay.mecHost1.virtualisationInfrastructure.tcp.conn-63 unacked:vector ETV
attr interpolationmode sample-hold
attr recordingmode vector
vector 1577 MultiMecHost_delay.mecHost1.virtualisationInfrastructure.tcp.conn-63 dupAcks:vector ETV
attr interpolationmode sample-hold
attr recordingmode vector
vector 1578 MultiMecHost_delay.mecHost1.virtualisationInfrastructure.tcp.conn-63 pipe:vector ETV
attr interpolationmode sample-hold
attr recordingmode vector
vector 1579 MultiMecHost_delay.mecHost1.virtualisationInfrastructure.tcp.conn-63 sndSacks:vector ETV
attr interpolationmode sample-hold
attr recordingmode vector
vector 1580 MultiMecHost_delay.mecHost1.virtualisationInfrastructure.tcp.conn-63 rcvSacks:vector ETV
attr interpolationmode sample-hold
attr recordingmode vector
vector 1581 MultiMecHost_delay.mecHost1.virtualisationInfrastructure.tcp.conn-63 rcvOooSeg:vector ETV
attr interpolationmode sample-hold
attr recordingmode vector
vector 1582 MultiMecHost_delay.mecHost1.virtualisationInfrastructure.tcp.conn-63 rcvNASeg:vector ETV
attr interpolationmode sample-hold
attr recordingmode vector
vector 1583 MultiMecHost_delay.mecHost1.virtualisationInfrastructure.tcp.conn-63 sackedBytes:vector ETV
attr interpolationmode sample-hold
attr recordingmode vector
vector 1584 MultiMecHost_delay.mecHost1.virtualisationInfrastructure.tcp.conn-63 tcpRcvQueueBytes:vector ETV
attr interpolationmode sample-hold
attr recordingmode vector
vector 1585 MultiMecHost_delay.mecHost1.virtualisationInfrastructure.tcp.conn-63 tcpRcvQueueDrops:vector ETV
attr interpolationmode sample-hold
attr recordingmode vector
vector 1586 MultiMecHost_delay.mecHost1.virtualisationInfrastructure.tcp.conn-63 tcpRcvPayloadBytes:vector ETV
attr interpolationmode sample-hold
attr recordingmode vector
vector 1587 MultiMecHost_delay.mecHost1.virtualisationInfrastructure.tcp.conn-63 cwnd:vector ETV
attr interpolationmode sample-hold
attr recordingmode vector
vector 1588 MultiMecHost_delay.mecHost1.virtualisationInfrastructure.tcp.conn-63 ssthresh:vector ETV
attr interpolationmode sample-hold
attr recordingmode vector
vector 1589 MultiMecHost_delay.mecHost1.virtualisationInfrastructure.tcp.conn-63 rtt:vector ETV
attr interpolationmode sample-hold
attr recordingmode vector
vector 1590 MultiMecHost_delay.mecHost1.virtualisationInfrastructure.tcp.conn-63 srtt:vector ETV
attr interpolationmode sample-hold
attr recordingmode vector
vector 1591 MultiMecHost_delay.mecHost1.virtualisationInfrastructure.tcp.conn-63 rttvar:vector ETV
attr interpolationmode sample-hold
attr recordingmode vector
vector 1592 MultiMecHost_delay.mecHost1.virtualisationInfrastructure.tcp.conn-63 rto:vector ETV
attr interpolationmode sample-hold
attr recordingmode vector
vector 1593 MultiMecHost_delay.mecHost1.virtualisationInfrastructure.tcp.conn-63 numRtos:vector ETV
attr interpolationmode sample-hold
attr recordingmode vector
vector 1594 MultiMecHost_delay.mecHost1.virtualisationInfrastructure.tcp.conn-63 load:vector ETV
attr interpolationmode sample-hold
attr recordingmode vector
vector 1595 MultiMecHost_delay.mecHost1.virtualisationInfrastructure.tcp.conn-63 calcLoad:vector ETV
attr interpolationmode sample-hold
attr recordingmode vector
vector 1596 MultiMecHost_delay.mecHost1.virtualisationInfrastructure.tcp.conn-63 markingProb:vector ETV
attr interpolationmode sample-hold
attr recordingmode vector
